
**** 11/18/25 09:42:49 *** PSpice 24.1.0 (4 September 2024) *** ID# 0 ********

 ** Profile: "PART 1-Step 1_3"  [ c:\users\dosanj5\onedrive - mcmaster university\school files\2025 - 2026\elec 3ej4\lab 5\pspice\3ej


 ****     CIRCUIT DESCRIPTION


******************************************************************************




** Creating circuit file "Step 1_3.cir" 
** WARNING: THIS AUTOMATICALLY GENERATED FILE MAY BE OVERWRITTEN BY SUBSEQUENT SIMULATIONS

*Libraries: 
* Profile Libraries :
* Local Libraries :
* From [PSPICE NETLIST] section of C:\Users\dosanj5\AppData\Roaming\SPB_Data\cdssetup\OrCAD_PSpice\24.1.0\PSpice.ini file:
.lib "C:\Users\dosanj5\OneDrive - McMaster University\School Files\2025 - 2026\ELEC 3EJ4\Model Parts\Op-Amp TLV2371.LIB" 
.lib "C:\Users\dosanj5\OneDrive - McMaster University\School Files\2025 - 2026\ELEC 3EJ4\Model Parts\My2N3906.LIB" 
.lib "C:\Users\dosanj5\OneDrive - McMaster University\School Files\2025 - 2026\ELEC 3EJ4\Model Parts\My2N3904.LIB" 
.lib "nom.lib" 

*Analysis directives: 
.AC DEC 101 1 Hz 100 kHz
--------------$
ERROR(ORPSIM-16152): Invalid number: Error while converting token 'Hz' to double value. Token can be a constant or expression
.OPTIONS ADVCONV
.PROBE64 V(alias(*)) I(alias(*)) W(alias(*)) D(alias(*)) NOISE(alias(*)) 
.INC "..\PART 1.net" 



**** INCLUDING "PART 1.net" ****
* source 3EJ4 LAB 5
R_R2         VN VOUT  100k TC=0,0 
R_R3         0 VN  200k TC=0,0 
X_U1         VP VN N01734 N01798 VOUT TLV2371
R_R1         N01658 VP  100k TC=0,0 
V_VSS         N01798 0 -5V
V_VDD         N01734 0 5V
C_C1         0 VP  1n  TC=0,0 
V_Vin         N01658 0 DC 0Vdc AC 100mVac 0

**** RESUMING "Step 1_3.cir" ****
.END
