
**** 09/27/25 20:43:40 *** PSpice 24.1.0 (4 September 2024) *** ID# 0 ********

 ** Profile: "PART2-step2-3"  [ C:\Users\dosanj5\OneDrive - McMaster University\School Files\2025 - 2026\ELEC 3EJ4\Lab 2\Pspice\3EJ4 


 ****     CIRCUIT DESCRIPTION


******************************************************************************




** Creating circuit file "step2-3.cir" 
** WARNING: THIS AUTOMATICALLY GENERATED FILE MAY BE OVERWRITTEN BY SUBSEQUENT SIMULATIONS

*Libraries: 
* Profile Libraries :
* Local Libraries :
* From [PSPICE NETLIST] section of C:\Users\dosanj5\AppData\Roaming\SPB_Data\cdssetup\OrCAD_PSpice\24.1.0\PSpice.ini file:
.lib "C:\Users\dosanj5\OneDrive - McMaster University\School Files\2025 - 2026\ELEC 3EJ4\Model Parts\My2N3906.LIB" 
.lib "C:\Users\dosanj5\OneDrive - McMaster University\School Files\2025 - 2026\ELEC 3EJ4\Model Parts\My2N3904.LIB" 
.lib "nom.lib" 

*Analysis directives: 
.AC DEC 101 0.1 Hz 1 MegHz
----------------$
ERROR(ORPSIM-16152): Invalid number: Error while converting token 'Hz' to double value. Token can be a constant or expression
.OPTIONS ADVCONV
.PROBE64 V(alias(*)) I(alias(*)) W(alias(*)) D(alias(*)) NOISE(alias(*)) 
.INC "..\PART2.net" 



**** INCLUDING PART2.net ****
* source 3EJ4 LAB 2
R_R1         N02592 0  76.8k TC=0,0 
R_R2         N02682 N02592  57.6k TC=0,0 
R_R3         N02682 N02634  8.06k TC=0,0 
V_VEE         N02682 0 -5V
Q_Q3         VE N02592 N02634 MY2N3904 
V_Vcm         VB12 0 DC 0V AC 1mV 0
Q_Q1         N02426 VB12 VE MY2N3904 
V_VCC         N03306 0 5V
Q_Q2         VO VB12 VE MY2N3904 
R_R4         N02426 N03306  8.25k TC=0,0 
R_R5         VO N03306  8.25k TC=0,0 

**** RESUMING step2-3.cir ****
.END
