
**** 09/27/25 20:06:42 *** PSpice 24.1.0 (4 September 2024) *** ID# 0 ********

 ** Profile: "PART 1B-bias"  [ C:\Users\dosanj5\OneDrive - McMaster University\School Files\2025 - 2026\ELEC 3EJ4\Lab 2\Pspice\3ej4 l


 ****     CIRCUIT DESCRIPTION


******************************************************************************




** Creating circuit file "bias.cir" 
** WARNING: THIS AUTOMATICALLY GENERATED FILE MAY BE OVERWRITTEN BY SUBSEQUENT SIMULATIONS

*Libraries: 
* Profile Libraries :
* Local Libraries :
* From [PSPICE NETLIST] section of C:\Users\dosanj5\AppData\Roaming\SPB_Data\cdssetup\OrCAD_PSpice\24.1.0\PSpice.ini file:
.lib "C:\Users\dosanj5\OneDrive - McMaster University\School Files\2025 - 2026\ELEC 3EJ4\Model Parts\My2N3906.LIB" 
.lib "C:\Users\dosanj5\OneDrive - McMaster University\School Files\2025 - 2026\ELEC 3EJ4\Model Parts\My2N3904.LIB" 
.lib "nom.lib" 

*Analysis directives: 
.SENS VO 
---------$
ERROR -- Missing device or node
.OPTIONS ADVCONV
.PROBE64 V(alias(*)) I(alias(*)) W(alias(*)) D(alias(*)) NOISE(alias(*)) 
.INC "..\PART 1B.net" 



**** INCLUDING "PART 1B.net" ****
* source 3EJ4 LAB 2
V_VEE         N00598 0 -5V
R_R2         N00598 VB  57.6k TC=0,0 
Q_Q1         VO VB VE MY2N3904 
R_R3         N00598 VE  8.06k TC=0,0 
R_R1         VB 0  76.8k TC=0,0 
V_Vsig         N01594 0 DC 4.39V AC 0V 0
Q_Q2         VO N01594 N02137 MY2N3906 
V_VCC         N02137 0 5V

**** RESUMING bias.cir ****
.END
