
**** 11/08/25 17:30:26 *** PSpice 24.1.0 (4 September 2024) *** ID# 0 ********

 ** Profile: "PART 2-step2_3"  [ c:\users\dosanj5\onedrive - mcmaster university\school files\2025 - 2026\elec 3ej4\lab 4\pspice\3ej4


 ****     CIRCUIT DESCRIPTION


******************************************************************************




** Creating circuit file "step2_3.cir" 
** WARNING: THIS AUTOMATICALLY GENERATED FILE MAY BE OVERWRITTEN BY SUBSEQUENT SIMULATIONS

*Libraries: 
* Profile Libraries :
* Local Libraries :
.LIB "C:/Users/dosanj5/OneDrive - McMaster University/School Files/2025 - 2026/ELEC 3EJ4/Model Parts/Op-Amp TLV2371.LIB" 
* From [PSPICE NETLIST] section of C:\Users\dosanj5\AppData\Roaming\SPB_Data\cdssetup\OrCAD_PSpice\24.1.0\PSpice.ini file:
.lib "C:\Users\dosanj5\OneDrive - McMaster University\School Files\2025 - 2026\ELEC 3EJ4\Model Parts\Op-Amp TLV2371.LIB" 
.lib "C:\Users\dosanj5\OneDrive - McMaster University\School Files\2025 - 2026\ELEC 3EJ4\Model Parts\My2N3906.LIB" 
.lib "C:\Users\dosanj5\OneDrive - McMaster University\School Files\2025 - 2026\ELEC 3EJ4\Model Parts\My2N3904.LIB" 
.lib "nom.lib" 

*Analysis directives: 
.TRAN  0 2.5 0 1 
.OPTIONS ADVCONV
.AUTOCONVERGE ITL1=1000 ITL2=1000 ITL4=1000 RELTOL=0.05 ABSTOL=1.0E-6 VNTOL=.001 PIVTOL=1.0E-10 
.PROBE64 V(alias(*)) I(alias(*)) W(alias(*)) D(alias(*)) NOISE(alias(*)) 
.INC "..\PART 2.net" 



**** INCLUDING "PART 2.net" ****
* source 3EJ4 LAB 4
R_R2         N00150 VOUT  240k TC=0,0 
R_R1         0 N00150  100k TC=0,0 
R_R3         N00366 VOUT  8.25k TC=0,0 
C_C2         N00315 N00366  1n  TC=0,0 
R_R4         0 N00315  8.25k TC=0,0 
C_C1         0 N00366  1n  TC=0,0 
V_VDD         N00783 0 5V
V_VSS         0 N00934 -5V
X_U1         N00315 N00150 N00783 N00934 VOUT TLV2371

**** RESUMING step2_3.cir ****
.END

**** 11/08/25 17:30:26 *** PSpice 24.1.0 (4 September 2024) *** ID# 0 ********

 ** Profile: "PART 2-step2_3"  [ c:\users\dosanj5\onedrive - mcmaster university\school files\2025 - 2026\elec 3ej4\lab 4\pspice\3ej4


 ****     Diode MODEL PARAMETERS


******************************************************************************




               X_U1.DVN        X_U1.DD         X_U1.DIN        
          IS  100.000000E-18   10.000000E-15   10.000000E-15 
          KF    8.000000E-12                                 


**** 11/08/25 17:30:26 *** PSpice 24.1.0 (4 September 2024) *** ID# 0 ********

 ** Profile: "PART 2-step2_3"  [ c:\users\dosanj5\onedrive - mcmaster university\school files\2025 - 2026\elec 3ej4\lab 4\pspice\3ej4


 ****     BJT MODEL PARAMETERS


******************************************************************************




               X_U1.QLN        X_U1.QLP        
               NPN             PNP             
       LEVEL    1               1            
          IS  100.000000E-18  100.000000E-18 
          BF  100             100            
          NF    1               1            
          BR    1               1            
          NR    1               1            
         ISS    0               0            
          RE    0               0            
          RC    0               0            
         CJE    0               0            
         VJE     .75             .75         
         CJC    0               0            
         VJC     .75             .75         
         MJC     .33             .33         
        XCJC    1               1            
         CJS    0               0            
         VJS     .75             .75         
          KF    0               0            
          AF    1               1            
          CN    2.42            2.2          
           D     .87             .52         


**** 11/08/25 17:30:26 *** PSpice 24.1.0 (4 September 2024) *** ID# 0 ********

 ** Profile: "PART 2-step2_3"  [ c:\users\dosanj5\onedrive - mcmaster university\school files\2025 - 2026\elec 3ej4\lab 4\pspice\3ej4


 ****     Junction FET MODEL PARAMETERS


******************************************************************************




               X_U1.JNC        
               NJF             
         VTO   -2            
        BETA  100.000000E-06 


**** 11/08/25 17:30:26 *** PSpice 24.1.0 (4 September 2024) *** ID# 0 ********

 ** Profile: "PART 2-step2_3"  [ c:\users\dosanj5\onedrive - mcmaster university\school files\2025 - 2026\elec 3ej4\lab 4\pspice\3ej4


 ****     MOSFET MODEL PARAMETERS


******************************************************************************




               X_U1.POUT       X_U1.NOUT       X_U1.PIN        X_U1.NIN        
               PMOS            NMOS            PMOS            NMOS            
       LEVEL    1               1               1               1            
           L  100.000000E-06  100.000000E-06  100.000000E-06  100.000000E-06 
           W  100.000000E-06  100.000000E-06  100.000000E-06  100.000000E-06 
         VTO    -.7              .7             -.7              .7          
          KP  200.000000E-06  200.000000E-06  200.000000E-06  200.000000E-06 
       GAMMA    0               0               0               0            
         PHI     .6              .6              .6              .6          
      LAMBDA    0               0               0               0            
          IS   10.000000E-15   10.000000E-15   10.000000E-15   10.000000E-15 
          JS    0               0               0               0            
          PB     .8              .8              .8              .8          
        PBSW     .8              .8              .8              .8          
          CJ    0               0               0               0            
        CJSW    0               0               0               0            
        CGSO    0               0               0               0            
        CGDO    0               0               0               0            
        CGBO    0               0               0               0            
         TOX    0               0               0               0            
          XJ    0               0               0               0            
       UCRIT   10.000000E+03   10.000000E+03   10.000000E+03   10.000000E+03 
      DIOMOD    1               1               1               1            
         VFB    0               0               0               0            
        LETA    0               0               0               0            
        WETA    0               0               0               0            
          U0    0               0               0               0            
        TEMP    0               0               0               0            
         VDD    5               5               5               5            
       XPART    0               0               0               0            


               X_U1.NIQS       X_U1.NEN        X_U1.PEN        X_U1.PSW        
               NMOS            NMOS            PMOS            PMOS            
       LEVEL    1               1               1               1            
           L  100.000000E-06  100.000000E-06  100.000000E-06  100.000000E-06 
           W  100.000000E-06  100.000000E-06  100.000000E-06  100.000000E-06 
         VTO     .7              .5             -.7            -7.5          
          KP  200.000000E-06  200.000000E-06  200.000000E-06  200.000000E-06 
       GAMMA    0               0               0               0            
         PHI     .6              .6              .6              .6          
      LAMBDA    0               0               0               0            
          IS    1.000000E-18    1.000000E-18    1.000000E-18    1.000000E-18 
          JS    0               0               0               0            
          PB     .8              .8              .8              .8          
        PBSW     .8              .8              .8              .8          
          CJ    0               0               0               0            
        CJSW    0               0               0               0            
        CGSO    0               0               0               0            
        CGDO    0               0               0               0            
        CGBO    0               0               0               0            
         TOX    0               0               0               0            
          XJ    0               0               0               0            
       UCRIT   10.000000E+03   10.000000E+03   10.000000E+03   10.000000E+03 
      DIOMOD    1               1               1               1            
         VFB    0               0               0               0            
        LETA    0               0               0               0            
        WETA    0               0               0               0            
          U0    0               0               0               0            
        TEMP    0               0               0               0            
         VDD    5               5               5               5            
       XPART    0               0               0               0            


               X_U1.NSW        
               NMOS            
       LEVEL    1            
           L  100.000000E-06 
           W  100.000000E-06 
         VTO    7.5          
          KP  200.000000E-06 
       GAMMA    0            
         PHI     .6          
      LAMBDA    0            
          IS    1.000000E-18 
          JS    0            
          PB     .8          
        PBSW     .8          
          CJ    0            
        CJSW    0            
        CGSO    0            
        CGDO    0            
        CGBO    0            
         TOX    0            
          XJ    0            
       UCRIT   10.000000E+03 
      DIOMOD    1            
         VFB    0            
        LETA    0            
        WETA    0            
          U0    0            
        TEMP    0            
         VDD    5            
       XPART    0            


Starting pseudo-transient algorithm.

INFO(ORPSIM-16594): To improve Pseudotransient Convergence and Performance, set following options to relax stabilization criteria for capacitor currents and inductor voltages: PTRANABSTOL=1e-5, PTRANVNTOL=1e-4
Convergence problem in transient bias point calculation


  Last node voltages tried were:

 NODE   VOLTAGE     NODE   VOLTAGE     NODE   VOLTAGE     NODE   VOLTAGE


( VOUT)    1.5192  (N00150)     .4467 (N00315)     .0135 (N00366)    1.5032     

(N00783)    1.5220 (N00934)    1.5220 (X_U1.5)    2.1308 (X_U1.7)     .5125     

(X_U1.8)     .4633 (X_U1.9)     .4633 (X_U1.10)     .4633                       

(X_U1.11)     .4633                   (X_U1.12)     .4633                       

(X_U1.13)     .4633                   (X_U1.14)     .4633                       

(X_U1.15)     .4633                   (X_U1.16)    1.5220                       

(X_U1.17)    1.5220                   (X_U1.18)     .7760                       

(X_U1.19)     .7760                   (X_U1.20)     .4633                       

(X_U1.21)     .4633                   (X_U1.22)     .4633                       

(X_U1.23)    1.5192                   (X_U1.24)     .5648                       

(X_U1.25)     .5648                   (X_U1.26)     .6839                       

(X_U1.27)     .6839                   (X_U1.28)     .4467                       

(X_U1.29)     .0135                   (X_U1.30)     .1410                       

(X_U1.31)     .1410                   (X_U1.32)     .0213                       

(X_U1.33)     .0700                   (X_U1.34) 14.10E-06                       

(X_U1.35) 14.10E-06                   (X_U1.36) 2.132E-06                       

(X_U1.37)     .0135                   (X_U1.38)     .1360                       

(X_U1.39)     .0041                   (X_U1.40)     .0135                       

(X_U1.41)     .4633                   (X_U1.42)    1.5192                       

(X_U1.43)     .5595                   (X_U1.44)    1.5192                       

(X_U1.45)     .3961                   (X_U1.46)    -.2657                       

(X_U1.47)     .4633                   (X_U1.48)     .0135                       

(X_U1.49)     .4633                   (X_U1.50)     .4467                       

(X_U1.51)    1.1924                   (X_U1.52)     .3961                       

(X_U1.53)     .5595                   (X_U1.54)     .4633                       

(X_U1.55)     .4313                   (X_U1.56)     .0135                       

(X_U1.57)     .4633                   (X_U1.58)    -.2503                       

(X_U1.59)     .4633                   (X_U1.60)     .4633                       

(X_U1.61)     .4467                   (X_U1.62)     .4633                       

(X_U1.63)   94.6880                   (X_U1.64)    1.3732                       

(X_U1.65)     .7792                   (X_U1.66)     .2426                       

(X_U1.67)     .0927                   (X_U1.68)    1.6222                       

(X_U1.69)    -.3829                   (X_U1.70)    4.1832                       

(X_U1.71)   -2.9439                   (X_U1.72)     .4662                       

(X_U1.73)     .4131                   (X_U1.74)     .4633                       

(X_U1.75)     .7677                   (X_U1.76)     .7677                       

(X_U1.77)     .7677                   (X_U1.78)    -.2422                       

(X_U1.79)     .7677                   (X_U1.80)    1.5220                       

(X_U1.81)    1.5784                   (X_U1.82)     .7677                       

(X_U1.83)     .4633                   (X_U1.84)     .0138                       

(X_U1.85)     .4633                   (X_U1.86)     .4633                       

(X_U1.87)     .4467                   (X_U1.88)     .4633                       

(X_U1.89)     .4633                   (X_U1.90)     .4633                       

(X_U1.91)     .4633                   (X_U1.92)     .0138                       

(X_U1.93)     .4633                   (X_U1.94)     .0828                       

(X_U1.95)     .4633                   (X_U1.96)    -.0011                       

(X_U1.97)     .6243                   (X_U1.98)     .4112                       

(X_U1.99)  -71.4760                   (X_U1.100)  -96.8940                  

Resuming Simulation with the following settings
ITL1 = 291
ITL2 = 171

Convergence problem in transient bias point calculation


  Last node voltages tried were:

 NODE   VOLTAGE     NODE   VOLTAGE     NODE   VOLTAGE     NODE   VOLTAGE


( VOUT)    1.5200  (N00150)     .4471 (N00315)     .0074 (N00366)    1.5200     

(N00783)    1.5220 (N00934)    1.5220 (X_U1.5)    2.1308 (X_U1.7)     .4955     

(X_U1.8)     .4633 (X_U1.9)     .4633 (X_U1.10)     .4633                       

(X_U1.11)     .4633                   (X_U1.12)     .4633                       

(X_U1.13)     .4633                   (X_U1.14)     .4633                       

(X_U1.15)     .4633                   (X_U1.16)    1.5220                       

(X_U1.17)    1.5220                   (X_U1.18)     .4631                       

(X_U1.19)     .4631                   (X_U1.20)     .4633                       

(X_U1.21)     .4633                   (X_U1.22)     .4633                       

(X_U1.23)    1.5200                   (X_U1.24)     .5648                       

(X_U1.25)     .5648                   (X_U1.26)     .6839                       

(X_U1.27)     .6839                   (X_U1.28)     .4471                       

(X_U1.29)     .0075                   (X_U1.30)     .1410                       

(X_U1.31)     .1410                   (X_U1.32)     .0211                       

(X_U1.33)     .0692                   (X_U1.34) 14.10E-06                       

(X_U1.35) 14.10E-06                   (X_U1.36) 2.106E-06                       

(X_U1.37)     .0074                   (X_U1.38)     .1361                       

(X_U1.39)     .0023                   (X_U1.40)     .0075                       

(X_U1.41)     .4633                   (X_U1.42)    1.5200                       

(X_U1.43)     .5308                   (X_U1.44)    1.5200                       

(X_U1.45)     .3958                   (X_U1.46)    -.2657                       

(X_U1.47)     .4633                   (X_U1.48)     .0075                       

(X_U1.49)     .4633                   (X_U1.50)     .4471                       

(X_U1.51)    1.1924                   (X_U1.52)     .3958                       

(X_U1.53)     .5308                   (X_U1.54)     .4633                       

(X_U1.55)     .4311                   (X_U1.56)     .0075                       

(X_U1.57)     .4633                   (X_U1.58)    -.2503                       

(X_U1.59)     .4633                   (X_U1.60)     .4633                       

(X_U1.61)     .4471                   (X_U1.62)     .4633                       

(X_U1.63)     .4028                   (X_U1.64)     .4072                       

(X_U1.65)     .6850                   (X_U1.66)     .2416                       

(X_U1.67)     .0927                   (X_U1.68)    1.3093                       

(X_U1.69)    -.3829                   (X_U1.70)    4.1832                       

(X_U1.71)   -3.2568                   (X_U1.72)     .3091                       

(X_U1.73)     .3088                   (X_U1.74)     .4633                       

(X_U1.75)     .7677                   (X_U1.76)     .7677                       

(X_U1.77)     .7677                   (X_U1.78)    -.2422                       

(X_U1.79)     .7677                   (X_U1.80)    1.5220                       

(X_U1.81)    1.5784                   (X_U1.82)     .7677                       

(X_U1.83)     .4633                   (X_U1.84)     .0078                       

(X_U1.85)     .4633                   (X_U1.86)     .4633                       

(X_U1.87)     .4471                   (X_U1.88)     .4633                       

(X_U1.89)     .4633                   (X_U1.90)     .4633                       

(X_U1.91)     .4633                   (X_U1.92)     .0078                       

(X_U1.93)     .4633                   (X_U1.94)     .0828                       

(X_U1.95)     .4633                   (X_U1.96)    -.0011                       

(X_U1.97)     .6243                   (X_U1.98)     .4112                       

(X_U1.99)  -71.4760                   (X_U1.100)  -96.8940                  

Resuming Simulation with the following settings
ITL1 = 565
ITL2 = 1000

Convergence problem in transient bias point calculation


  Last node voltages tried were:

 NODE   VOLTAGE     NODE   VOLTAGE     NODE   VOLTAGE     NODE   VOLTAGE


( VOUT)    1.5200  (N00150)     .4471 (N00315)     .0074 (N00366)    1.5200     

(N00783)    1.5220 (N00934)    1.5220 (X_U1.5)    2.1308 (X_U1.7)     .4955     

(X_U1.8)     .4633 (X_U1.9)     .4633 (X_U1.10)     .4633                       

(X_U1.11)     .4633                   (X_U1.12)     .4633                       

(X_U1.13)     .4633                   (X_U1.14)     .4633                       

(X_U1.15)     .4633                   (X_U1.16)    1.5220                       

(X_U1.17)    1.5220                   (X_U1.18)     .4631                       

(X_U1.19)     .4631                   (X_U1.20)     .4633                       

(X_U1.21)     .4633                   (X_U1.22)     .4633                       

(X_U1.23)    1.5200                   (X_U1.24)     .5648                       

(X_U1.25)     .5648                   (X_U1.26)     .6839                       

(X_U1.27)     .6839                   (X_U1.28)     .4471                       

(X_U1.29)     .0075                   (X_U1.30)     .1410                       

(X_U1.31)     .1410                   (X_U1.32)     .0211                       

(X_U1.33)     .0692                   (X_U1.34) 14.10E-06                       

(X_U1.35) 14.10E-06                   (X_U1.36) 2.106E-06                       

(X_U1.37)     .0074                   (X_U1.38)     .1361                       

(X_U1.39)     .0023                   (X_U1.40)     .0075                       

(X_U1.41)     .4633                   (X_U1.42)    1.5200                       

(X_U1.43)     .5308                   (X_U1.44)    1.5200                       

(X_U1.45)     .3958                   (X_U1.46)    -.2657                       

(X_U1.47)     .4633                   (X_U1.48)     .0075                       

(X_U1.49)     .4633                   (X_U1.50)     .4471                       

(X_U1.51)    1.1924                   (X_U1.52)     .3958                       

(X_U1.53)     .5308                   (X_U1.54)     .4633                       

(X_U1.55)     .4311                   (X_U1.56)     .0075                       

(X_U1.57)     .4633                   (X_U1.58)    -.2503                       

(X_U1.59)     .4633                   (X_U1.60)     .4633                       

(X_U1.61)     .4471                   (X_U1.62)     .4633                       

(X_U1.63)     .4028                   (X_U1.64)     .4072                       

(X_U1.65)     .6850                   (X_U1.66)     .2416                       

(X_U1.67)     .0927                   (X_U1.68)    1.3093                       

(X_U1.69)    -.3829                   (X_U1.70)    4.1832                       

(X_U1.71)   -3.2568                   (X_U1.72)     .3091                       

(X_U1.73)     .3088                   (X_U1.74)     .4633                       

(X_U1.75)     .7677                   (X_U1.76)     .7677                       

(X_U1.77)     .7677                   (X_U1.78)    -.2422                       

(X_U1.79)     .7677                   (X_U1.80)    1.5220                       

(X_U1.81)    1.5784                   (X_U1.82)     .7677                       

(X_U1.83)     .4633                   (X_U1.84)     .0078                       

(X_U1.85)     .4633                   (X_U1.86)     .4633                       

(X_U1.87)     .4471                   (X_U1.88)     .4633                       

(X_U1.89)     .4633                   (X_U1.90)     .4633                       

(X_U1.91)     .4633                   (X_U1.92)     .0078                       

(X_U1.93)     .4633                   (X_U1.94)     .0828                       

(X_U1.95)     .4633                   (X_U1.96)    -.0011                       

(X_U1.97)     .6243                   (X_U1.98)     .4112                       

(X_U1.99)  -71.4760                   (X_U1.100)  -96.8940                  

Resuming Simulation with the following settings
ITL1 = 1000

Convergence problem in transient bias point calculation


  Last node voltages tried were:

 NODE   VOLTAGE     NODE   VOLTAGE     NODE   VOLTAGE     NODE   VOLTAGE


( VOUT)    1.5200  (N00150)     .4471 (N00315)     .0074 (N00366)    1.5200     

(N00783)    1.5220 (N00934)    1.5220 (X_U1.5)    2.1308 (X_U1.7)     .4955     

(X_U1.8)     .4633 (X_U1.9)     .4633 (X_U1.10)     .4633                       

(X_U1.11)     .4633                   (X_U1.12)     .4633                       

(X_U1.13)     .4633                   (X_U1.14)     .4633                       

(X_U1.15)     .4633                   (X_U1.16)    1.5220                       

(X_U1.17)    1.5220                   (X_U1.18)     .4631                       

(X_U1.19)     .4631                   (X_U1.20)     .4633                       

(X_U1.21)     .4633                   (X_U1.22)     .4633                       

(X_U1.23)    1.5200                   (X_U1.24)     .5648                       

(X_U1.25)     .5648                   (X_U1.26)     .6839                       

(X_U1.27)     .6839                   (X_U1.28)     .4471                       

(X_U1.29)     .0075                   (X_U1.30)     .1410                       

(X_U1.31)     .1410                   (X_U1.32)     .0211                       

(X_U1.33)     .0692                   (X_U1.34) 14.10E-06                       

(X_U1.35) 14.10E-06                   (X_U1.36) 2.106E-06                       

(X_U1.37)     .0074                   (X_U1.38)     .1361                       

(X_U1.39)     .0023                   (X_U1.40)     .0075                       

(X_U1.41)     .4633                   (X_U1.42)    1.5200                       

(X_U1.43)     .5308                   (X_U1.44)    1.5200                       

(X_U1.45)     .3958                   (X_U1.46)    -.2657                       

(X_U1.47)     .4633                   (X_U1.48)     .0075                       

(X_U1.49)     .4633                   (X_U1.50)     .4471                       

(X_U1.51)    1.1924                   (X_U1.52)     .3958                       

(X_U1.53)     .5308                   (X_U1.54)     .4633                       

(X_U1.55)     .4311                   (X_U1.56)     .0075                       

(X_U1.57)     .4633                   (X_U1.58)    -.2503                       

(X_U1.59)     .4633                   (X_U1.60)     .4633                       

(X_U1.61)     .4471                   (X_U1.62)     .4633                       

(X_U1.63)     .4028                   (X_U1.64)     .4072                       

(X_U1.65)     .6850                   (X_U1.66)     .2416                       

(X_U1.67)     .0927                   (X_U1.68)    1.3093                       

(X_U1.69)    -.3829                   (X_U1.70)    4.1832                       

(X_U1.71)   -3.2568                   (X_U1.72)     .3091                       

(X_U1.73)     .3088                   (X_U1.74)     .4633                       

(X_U1.75)     .7677                   (X_U1.76)     .7677                       

(X_U1.77)     .7677                   (X_U1.78)    -.2422                       

(X_U1.79)     .7677                   (X_U1.80)    1.5220                       

(X_U1.81)    1.5784                   (X_U1.82)     .7677                       

(X_U1.83)     .4633                   (X_U1.84)     .0078                       

(X_U1.85)     .4633                   (X_U1.86)     .4633                       

(X_U1.87)     .4471                   (X_U1.88)     .4633                       

(X_U1.89)     .4633                   (X_U1.90)     .4633                       

(X_U1.91)     .4633                   (X_U1.92)     .0078                       

(X_U1.93)     .4633                   (X_U1.94)     .0828                       

(X_U1.95)     .4633                   (X_U1.96)    -.0011                       

(X_U1.97)     .6243                   (X_U1.98)     .4112                       

(X_U1.99)  -71.4760                   (X_U1.100)  -96.8940                  

Convergence problem in transient analysis at Time =  465.7E-15
         Time step =  465.7E-15, minimum allowable step size =  2.500E-12

  These voltages failed to converge:

    V(N00150)                 =    25.16mV  \   446.70mV
    V(VOUT)                   =   234.47mV  \     1.519V
    V(N00366)                 =   -11.21mV  \     1.503V
    V(N00315)                 =   -22.42mV  \    13.46mV
    V(N00783)                 =     5.000V  \     1.522V
    V(N00934)                 =     5.000V  \     1.522V
    V(X_U1.5)                 =     7.000V  \     2.131V
    V(X_U1.7)                 =     5.553V  \   512.48mV
    V(X_U1.8)                 =     5.000V  \   463.31mV
    V(X_U1.9)                 =     5.000V  \   463.31mV
    V(X_U1.10)                =     5.000V  \   463.31mV
    V(X_U1.11)                =     5.000V  \   463.31mV
    V(X_U1.12)                =     5.000V  \   463.31mV
    V(X_U1.13)                =     5.000V  \   463.31mV
    V(X_U1.14)                =     4.958V  \   463.31mV
    V(X_U1.15)                =     4.958V  \   463.31mV
    V(X_U1.16)                =     4.958V  \     1.522V
    V(X_U1.17)                =     5.000V  \     1.522V
    V(X_U1.18)                =     4.669V  \   775.96mV
    V(X_U1.19)                =   251.63mV  \   775.96mV
    V(X_U1.20)                =     5.000V  \   463.31mV
    V(X_U1.21)                =     5.000V  \   463.31mV
    V(X_U1.22)                =     5.000V  \   463.32mV
    V(X_U1.23)                =   243.40mV  \     1.519V
    V(X_U1.24)                =   623.88mV  \   564.78mV
    V(X_U1.25)                =   623.88mV  \   564.78mV
    V(X_U1.26)                =   742.99mV  \   683.89mV
    V(X_U1.27)                =   742.99mV  \   683.89mV
    V(X_U1.28)                =    25.16mV  \   446.70mV
    V(X_U1.29)                =     2.777V  \    13.47mV
    V(X_U1.30)                =     5.000V  \   141.04mV
    V(X_U1.31)                =     5.000V  \   141.04mV
    V(X_U1.32)                =     1.401V  \    21.32mV
    V(X_U1.33)                =     1.401V  \    70.04mV
    V(X_U1.34)                =     1.747V  \    14.10uV
    V(X_U1.35)                =     1.747V  \    14.10uV
    V(X_U1.36)                =   489.57mV  \    2.132uV
    V(X_U1.37)                =   -17.53mV  \    13.46mV
    V(X_U1.38)                =    25.16mV  \   135.98mV
    V(X_U1.39)                =     2.777V  \    4.099mV
    V(X_U1.40)                =     1.380V  \    13.46mV
    V(X_U1.41)                =     5.000V  \   463.31mV
    V(X_U1.42)                =   243.40mV  \     1.519V
    V(X_U1.43)                =     5.898V  \   559.47mV
    V(X_U1.44)                =   254.01mV  \     1.519V
    V(X_U1.45)                =     3.767V  \   396.11mV
    V(X_U1.46)                =     3.769V  \  -265.74mV
    V(X_U1.47)                =     5.000V  \   463.31mV
    V(X_U1.48)                =     2.777V  \    13.47mV
    V(X_U1.49)                =     5.000V  \   463.31mV
    V(X_U1.50)                =    25.16mV  \   446.70mV
    V(X_U1.51)                =     6.231V  \     1.192V
    V(X_U1.52)                =     3.767V  \   396.11mV
    V(X_U1.53)                =     5.898V  \   559.47mV
    V(X_U1.54)                =     5.000V  \   463.31mV
    V(X_U1.55)                =     4.310V  \   431.30mV
    V(X_U1.56)                =     2.777V  \    13.47mV
    V(X_U1.57)                =     5.000V  \   463.31mV
    V(X_U1.58)                =     4.051V  \  -250.33mV
    V(X_U1.59)                =     5.000V  \   463.31mV
    V(X_U1.60)                =     5.000V  \   463.31mV
    V(X_U1.61)                =     2.727V  \   446.70mV
    V(X_U1.62)                =     5.000V  \   463.31mV
    V(X_U1.63)                =   -323.01V  \     94.69V
    V(X_U1.64)                =     6.375V  \     1.373V
    V(X_U1.65)                =     5.898V  \   779.19mV
    V(X_U1.66)                =     3.767V  \   242.55mV
    V(X_U1.67)                =     1.000V  \    92.66mV
    V(X_U1.68)                =     34.67V  \     1.622V
    V(X_U1.69)                =    -25.00V  \  -382.90mV
    V(X_U1.70)                =    -10.00V  \     4.183V
    V(X_U1.71)                =     19.67V  \    -2.944V
    V(X_U1.72)                =     4.290V  \   466.16mV
    V(X_U1.73)                =     3.223V  \   413.09mV
    V(X_U1.74)                =     5.000V  \   463.31mV
    V(X_U1.75)                =     6.000V  \   767.72mV
    V(X_U1.76)                =     6.000V  \   767.72mV
    V(X_U1.77)                =     6.000V  \   767.72mV
    V(X_U1.78)                =     4.288V  \  -242.20mV
    V(X_U1.79)                =     6.000V  \   767.72mV
    V(X_U1.80)                =     5.000V  \     1.522V
    V(X_U1.81)                =     7.000V  \     1.578V
    V(X_U1.82)                =     6.000V  \   767.72mV
    V(X_U1.83)                =     5.000V  \   463.31mV
    V(X_U1.84)                =     2.778V  \    13.77mV
    V(X_U1.85)                =     5.000V  \   463.31mV
    V(X_U1.86)                =     5.000V  \   463.31mV
    V(X_U1.87)                =    25.16mV  \   446.70mV
    V(X_U1.88)                =     5.000V  \   463.31mV
    V(X_U1.89)                =     5.000V  \   463.31mV
    V(X_U1.90)                =     5.000V  \   463.31mV
    V(X_U1.91)                =     5.000V  \   463.31mV
    V(X_U1.92)                =     2.778V  \    13.77mV
    V(X_U1.93)                =     5.000V  \   463.31mV
    V(X_U1.94)                =     3.750V  \    82.81mV
    V(X_U1.95)                =     5.000V  \   463.31mV
    V(X_U1.96)                =  -814.99uV  \   -1.066mV
    V(X_U1.97)                =   683.52mV  \   624.30mV
    V(X_U1.98)                =   -16.48mV  \   411.22mV
    V(X_U1.99)                =     9.410V  \    -71.48V
    V(X_U1.100)               =    -74.09V  \    -96.89V

  These supply currents failed to converge:

    I(X_U1.E2)                =   -20.77mA  \   223.90uA
    I(X_U1.E3)                =   750.24mA  \    10.00GA
    I(X_U1.E4)                =  -620.45nA  \   -1.584nA
    I(X_U1.E5)                =  -174.69mA  \   -1.410uA
    I(X_U1.E6)                =  -174.69mA  \   -1.410uA
    I(X_U1.E7)                =   -48.96mA  \  -213.19nA
    I(X_U1.E10)               =    -3.009A  \   716.21nA
    I(X_U1.E11)               =    -3.009A  \   716.21nA
    I(X_U1.E12)               =    -3.009A  \   716.21nA
    I(X_U1.E14)               =   -21.75mA  \   -95.11uA
    I(X_U1.E17)               =   -1.376mA  \    65.94uA
    I(X_U1.E18)               =    1.376mA  \   -65.94uA
    I(X_U1.E23)               =   -13.14nA  \   -11.33nA
    I(X_U1.E24)               =    -9.88nA  \     9.53nA
    I(X_U1.E48)               =   -34.67pA  \   -1.622pA
    I(X_U1.E49)               =    25.00pA  \   382.90fA
    I(X_U1.E50)               =   -1.000nA  \   -92.66pA
    I(X_U1.E94)               =   -2.000pA  \   -56.41fA
    I(X_U1.E100)              =   -9.409uA  \    71.48uA
    I(X_U1.L1)                =    8.319uA  \    6.399uA
    I(V_VDD)                  =   -10.96mA  \   -24.43uA
    I(V_VSS)                  =     2.630A  \    10.00GA
    I(X_U1.VEN)               =    -2.631A  \   -10.00GA
    I(X_U1.V51)               =   -4.036pA  \   -1.364pA
    I(X_U1.V78)               =    16.44pA  \   962.40fA
    I(X_U1.V79)               =   -49.75uA  \  -715.43nA
    I(X_U1.V119)              =   -16.48nA  \   411.22nA
    I(X_U1.V120)              =  -814.99pA  \   -1.066nA

  These devices failed to converge:
    X_U1.D5   X_U1.D6   X_U1.D7   X_U1.D8   X_U1.D9   X_U1.D10  X_U1.D11  
    X_U1.D12  X_U1.D13  X_U1.D14  X_U1.D17  X_U1.D18  X_U1.D46  X_U1.J2   
    X_U1.J3   X_U1.J4   X_U1.M1   X_U1.M2   X_U1.M3   X_U1.M8   X_U1.M23  
    X_U1.M41  X_U1.M42  X_U1.M44  X_U1.M45  X_U1.M46  X_U1.M50  



  Last node voltages tried were:

 NODE   VOLTAGE     NODE   VOLTAGE     NODE   VOLTAGE     NODE   VOLTAGE


( VOUT)     .2345  (N00150)     .0252 (N00315)    -.0224 (N00366)    -.0112     

(N00783)    5.0000 (N00934)    5.0000 (X_U1.5)    7.0000 (X_U1.7)    5.5525     

(X_U1.8)    5.0000 (X_U1.9)    5.0000 (X_U1.10)    5.0000                       

(X_U1.11)    5.0000                   (X_U1.12)    5.0000                       

(X_U1.13)    5.0000                   (X_U1.14)    4.9575                       

(X_U1.15)    4.9575                   (X_U1.16)    4.9575                       

(X_U1.17)    5.0000                   (X_U1.18)    4.6687                       

(X_U1.19)     .2516                   (X_U1.20)    4.9997                       

(X_U1.21)    5.0000                   (X_U1.22)    5.0003                       

(X_U1.23)     .2434                   (X_U1.24)     .6239                       

(X_U1.25)     .6239                   (X_U1.26)     .7430                       

(X_U1.27)     .7430                   (X_U1.28)     .0252                       

(X_U1.29)    2.7774                   (X_U1.30)    5.0000                       

(X_U1.31)    5.0000                   (X_U1.32)    1.4013                       

(X_U1.33)    1.4013                   (X_U1.34)    1.7468                       

(X_U1.35)    1.7468                   (X_U1.36)     .4896                       

(X_U1.37)    -.0175                   (X_U1.38)     .0252                       

(X_U1.39)    2.7774                   (X_U1.40)    1.3800                       

(X_U1.41)    5.0000                   (X_U1.42)     .2434                       

(X_U1.43)    5.8977                   (X_U1.44)     .2540                       

(X_U1.45)    3.7667                   (X_U1.46)    3.7688                       

(X_U1.47)    5.0000                   (X_U1.48)    2.7774                       

(X_U1.49)    5.0000                   (X_U1.50)     .0252                       

(X_U1.51)    6.2312                   (X_U1.52)    3.7667                       

(X_U1.53)    5.8977                   (X_U1.54)    5.0000                       

(X_U1.55)    4.3103                   (X_U1.56)    2.7774                       

(X_U1.57)    5.0000                   (X_U1.58)    4.0513                       

(X_U1.59)    5.0000                   (X_U1.60)    5.0000                       

(X_U1.61)    2.7271                   (X_U1.62)    5.0000                       

(X_U1.63) -323.0100                   (X_U1.64)    6.3746                       

(X_U1.65)    5.8977                   (X_U1.66)    3.7667                       

(X_U1.67)    1.0000                   (X_U1.68)   34.6690                       

(X_U1.69)  -25.0000                   (X_U1.70)  -10.0000                       

(X_U1.71)   19.6690                   (X_U1.72)    4.2903                       

(X_U1.73)    3.2229                   (X_U1.74)    5.0000                       

(X_U1.75)    6.0000                   (X_U1.76)    6.0000                       

(X_U1.77)    6.0000                   (X_U1.78)    4.2882                       

(X_U1.79)    6.0000                   (X_U1.80)    5.0000                       

(X_U1.81)    7.0000                   (X_U1.82)    6.0000                       

(X_U1.83)    5.0000                   (X_U1.84)    2.7784                       

(X_U1.85)    5.0000                   (X_U1.86)    5.0000                       

(X_U1.87)     .0252                   (X_U1.88)    5.0000                       

(X_U1.89)    5.0000                   (X_U1.90)    5.0000                       

(X_U1.91)    5.0000                   (X_U1.92)    2.7784                       

(X_U1.93)    5.0000                   (X_U1.94)    3.7500                       

(X_U1.95)    5.0000                   (X_U1.96)-815.0E-06                       

(X_U1.97)     .6835                   (X_U1.98)    -.0165                       

(X_U1.99)    9.4101                   (X_U1.100)  -74.0900                  

Resuming Simulation with the following settings
ITL4 = 125
ABSTOL = 1.26e-10

Convergence problem in transient analysis at Time =  465.7E-15
         Time step =  465.7E-15, minimum allowable step size =  2.500E-12

  These voltages failed to converge:

    V(N00150)                 =    25.16mV  \   446.70mV
    V(VOUT)                   =   234.47mV  \     1.519V
    V(N00366)                 =   -11.21mV  \     1.503V
    V(N00315)                 =   -22.42mV  \    13.46mV
    V(N00783)                 =     5.000V  \     1.522V
    V(N00934)                 =     5.000V  \     1.522V
    V(X_U1.5)                 =     7.000V  \     2.131V
    V(X_U1.7)                 =     5.553V  \   512.48mV
    V(X_U1.8)                 =     5.000V  \   463.31mV
    V(X_U1.9)                 =     5.000V  \   463.31mV
    V(X_U1.10)                =     5.000V  \   463.31mV
    V(X_U1.11)                =     5.000V  \   463.31mV
    V(X_U1.12)                =     5.000V  \   463.31mV
    V(X_U1.13)                =     5.000V  \   463.31mV
    V(X_U1.14)                =     4.958V  \   463.31mV
    V(X_U1.15)                =     4.958V  \   463.31mV
    V(X_U1.16)                =     4.958V  \     1.522V
    V(X_U1.17)                =     5.000V  \     1.522V
    V(X_U1.18)                =     4.669V  \   775.96mV
    V(X_U1.19)                =   251.63mV  \   775.96mV
    V(X_U1.20)                =     5.000V  \   463.31mV
    V(X_U1.21)                =     5.000V  \   463.31mV
    V(X_U1.22)                =     5.000V  \   463.32mV
    V(X_U1.23)                =   243.40mV  \     1.519V
    V(X_U1.24)                =   623.88mV  \   564.78mV
    V(X_U1.25)                =   623.88mV  \   564.78mV
    V(X_U1.26)                =   742.99mV  \   683.89mV
    V(X_U1.27)                =   742.99mV  \   683.89mV
    V(X_U1.28)                =    25.16mV  \   446.70mV
    V(X_U1.29)                =     2.777V  \    13.47mV
    V(X_U1.30)                =     5.000V  \   141.04mV
    V(X_U1.31)                =     5.000V  \   141.04mV
    V(X_U1.32)                =     1.401V  \    21.32mV
    V(X_U1.33)                =     1.401V  \    70.04mV
    V(X_U1.34)                =     1.747V  \    14.10uV
    V(X_U1.35)                =     1.747V  \    14.10uV
    V(X_U1.36)                =   489.57mV  \    2.132uV
    V(X_U1.37)                =   -17.53mV  \    13.46mV
    V(X_U1.38)                =    25.16mV  \   135.98mV
    V(X_U1.39)                =     2.777V  \    4.099mV
    V(X_U1.40)                =     1.380V  \    13.46mV
    V(X_U1.41)                =     5.000V  \   463.31mV
    V(X_U1.42)                =   243.40mV  \     1.519V
    V(X_U1.43)                =     5.898V  \   559.47mV
    V(X_U1.44)                =   254.01mV  \     1.519V
    V(X_U1.45)                =     3.767V  \   396.11mV
    V(X_U1.46)                =     3.769V  \  -265.74mV
    V(X_U1.47)                =     5.000V  \   463.31mV
    V(X_U1.48)                =     2.777V  \    13.47mV
    V(X_U1.49)                =     5.000V  \   463.31mV
    V(X_U1.50)                =    25.16mV  \   446.70mV
    V(X_U1.51)                =     6.231V  \     1.192V
    V(X_U1.52)                =     3.767V  \   396.11mV
    V(X_U1.53)                =     5.898V  \   559.47mV
    V(X_U1.54)                =     5.000V  \   463.31mV
    V(X_U1.55)                =     4.310V  \   431.30mV
    V(X_U1.56)                =     2.777V  \    13.47mV
    V(X_U1.57)                =     5.000V  \   463.31mV
    V(X_U1.58)                =     4.051V  \  -250.33mV
    V(X_U1.59)                =     5.000V  \   463.31mV
    V(X_U1.60)                =     5.000V  \   463.31mV
    V(X_U1.61)                =     2.727V  \   446.70mV
    V(X_U1.62)                =     5.000V  \   463.31mV
    V(X_U1.63)                =   -323.01V  \     94.69V
    V(X_U1.64)                =     6.375V  \     1.373V
    V(X_U1.65)                =     5.898V  \   779.19mV
    V(X_U1.66)                =     3.767V  \   242.55mV
    V(X_U1.67)                =     1.000V  \    92.66mV
    V(X_U1.68)                =     34.67V  \     1.622V
    V(X_U1.69)                =    -25.00V  \  -382.90mV
    V(X_U1.70)                =    -10.00V  \     4.183V
    V(X_U1.71)                =     19.67V  \    -2.944V
    V(X_U1.72)                =     4.290V  \   466.16mV
    V(X_U1.73)                =     3.223V  \   413.09mV
    V(X_U1.74)                =     5.000V  \   463.31mV
    V(X_U1.75)                =     6.000V  \   767.72mV
    V(X_U1.76)                =     6.000V  \   767.72mV
    V(X_U1.77)                =     6.000V  \   767.72mV
    V(X_U1.78)                =     4.288V  \  -242.20mV
    V(X_U1.79)                =     6.000V  \   767.72mV
    V(X_U1.80)                =     5.000V  \     1.522V
    V(X_U1.81)                =     7.000V  \     1.578V
    V(X_U1.82)                =     6.000V  \   767.72mV
    V(X_U1.83)                =     5.000V  \   463.31mV
    V(X_U1.84)                =     2.778V  \    13.77mV
    V(X_U1.85)                =     5.000V  \   463.31mV
    V(X_U1.86)                =     5.000V  \   463.31mV
    V(X_U1.87)                =    25.16mV  \   446.70mV
    V(X_U1.88)                =     5.000V  \   463.31mV
    V(X_U1.89)                =     5.000V  \   463.31mV
    V(X_U1.90)                =     5.000V  \   463.31mV
    V(X_U1.91)                =     5.000V  \   463.31mV
    V(X_U1.92)                =     2.778V  \    13.77mV
    V(X_U1.93)                =     5.000V  \   463.31mV
    V(X_U1.94)                =     3.750V  \    82.81mV
    V(X_U1.95)                =     5.000V  \   463.31mV
    V(X_U1.96)                =  -814.99uV  \   -1.066mV
    V(X_U1.97)                =   683.52mV  \   624.30mV
    V(X_U1.98)                =   -16.48mV  \   411.22mV
    V(X_U1.99)                =     9.410V  \    -71.48V
    V(X_U1.100)               =    -74.09V  \    -96.89V

  These supply currents failed to converge:

    I(X_U1.E2)                =   -20.77mA  \   223.90uA
    I(X_U1.E3)                =   750.24mA  \    10.00GA
    I(X_U1.E4)                =  -620.45nA  \   -1.584nA
    I(X_U1.E5)                =  -174.69mA  \   -1.410uA
    I(X_U1.E6)                =  -174.69mA  \   -1.410uA
    I(X_U1.E7)                =   -48.96mA  \  -213.19nA
    I(X_U1.E10)               =    -3.009A  \   716.21nA
    I(X_U1.E11)               =    -3.009A  \   716.21nA
    I(X_U1.E12)               =    -3.009A  \   716.21nA
    I(X_U1.E14)               =   -21.75mA  \   -95.11uA
    I(X_U1.E17)               =   -1.376mA  \    65.94uA
    I(X_U1.E18)               =    1.376mA  \   -65.94uA
    I(X_U1.E23)               =   -13.14nA  \   -11.33nA
    I(X_U1.E24)               =    -9.88nA  \     9.53nA
    I(X_U1.E50)               =   -1.000nA  \   -92.66pA
    I(X_U1.E100)              =   -9.409uA  \    71.48uA
    I(X_U1.L1)                =    8.319uA  \    6.399uA
    I(V_VDD)                  =   -10.96mA  \   -24.43uA
    I(V_VSS)                  =     2.630A  \    10.00GA
    I(X_U1.VEN)               =    -2.631A  \   -10.00GA
    I(X_U1.V79)               =   -49.75uA  \  -715.43nA
    I(X_U1.V119)              =   -16.48nA  \   411.22nA
    I(X_U1.V120)              =  -814.99pA  \   -1.066nA

  These devices failed to converge:
    X_U1.D6   X_U1.D7   X_U1.D8   X_U1.D9   X_U1.D10  X_U1.D11  X_U1.D12  
    X_U1.D13  X_U1.D14  X_U1.D17  X_U1.D18  X_U1.D46  X_U1.J3   X_U1.J4   
    X_U1.M1   X_U1.M2   X_U1.M3   X_U1.M8   X_U1.M23  X_U1.M41  X_U1.M42  
    X_U1.M44  X_U1.M45  X_U1.M46  X_U1.M50  



  Last node voltages tried were:

 NODE   VOLTAGE     NODE   VOLTAGE     NODE   VOLTAGE     NODE   VOLTAGE


( VOUT)     .2345  (N00150)     .0252 (N00315)    -.0224 (N00366)    -.0112     

(N00783)    5.0000 (N00934)    5.0000 (X_U1.5)    7.0000 (X_U1.7)    5.5525     

(X_U1.8)    5.0000 (X_U1.9)    5.0000 (X_U1.10)    5.0000                       

(X_U1.11)    5.0000                   (X_U1.12)    5.0000                       

(X_U1.13)    5.0000                   (X_U1.14)    4.9575                       

(X_U1.15)    4.9575                   (X_U1.16)    4.9575                       

(X_U1.17)    5.0000                   (X_U1.18)    4.6687                       

(X_U1.19)     .2516                   (X_U1.20)    4.9997                       

(X_U1.21)    5.0000                   (X_U1.22)    5.0003                       

(X_U1.23)     .2434                   (X_U1.24)     .6239                       

(X_U1.25)     .6239                   (X_U1.26)     .7430                       

(X_U1.27)     .7430                   (X_U1.28)     .0252                       

(X_U1.29)    2.7774                   (X_U1.30)    5.0000                       

(X_U1.31)    5.0000                   (X_U1.32)    1.4013                       

(X_U1.33)    1.4013                   (X_U1.34)    1.7468                       

(X_U1.35)    1.7468                   (X_U1.36)     .4896                       

(X_U1.37)    -.0175                   (X_U1.38)     .0252                       

(X_U1.39)    2.7774                   (X_U1.40)    1.3800                       

(X_U1.41)    5.0000                   (X_U1.42)     .2434                       

(X_U1.43)    5.8977                   (X_U1.44)     .2540                       

(X_U1.45)    3.7667                   (X_U1.46)    3.7688                       

(X_U1.47)    5.0000                   (X_U1.48)    2.7774                       

(X_U1.49)    5.0000                   (X_U1.50)     .0252                       

(X_U1.51)    6.2312                   (X_U1.52)    3.7667                       

(X_U1.53)    5.8977                   (X_U1.54)    5.0000                       

(X_U1.55)    4.3103                   (X_U1.56)    2.7774                       

(X_U1.57)    5.0000                   (X_U1.58)    4.0513                       

(X_U1.59)    5.0000                   (X_U1.60)    5.0000                       

(X_U1.61)    2.7271                   (X_U1.62)    5.0000                       

(X_U1.63) -323.0100                   (X_U1.64)    6.3746                       

(X_U1.65)    5.8977                   (X_U1.66)    3.7667                       

(X_U1.67)    1.0000                   (X_U1.68)   34.6690                       

(X_U1.69)  -25.0000                   (X_U1.70)  -10.0000                       

(X_U1.71)   19.6690                   (X_U1.72)    4.2903                       

(X_U1.73)    3.2229                   (X_U1.74)    5.0000                       

(X_U1.75)    6.0000                   (X_U1.76)    6.0000                       

(X_U1.77)    6.0000                   (X_U1.78)    4.2882                       

(X_U1.79)    6.0000                   (X_U1.80)    5.0000                       

(X_U1.81)    7.0000                   (X_U1.82)    6.0000                       

(X_U1.83)    5.0000                   (X_U1.84)    2.7784                       

(X_U1.85)    5.0000                   (X_U1.86)    5.0000                       

(X_U1.87)     .0252                   (X_U1.88)    5.0000                       

(X_U1.89)    5.0000                   (X_U1.90)    5.0000                       

(X_U1.91)    5.0000                   (X_U1.92)    2.7784                       

(X_U1.93)    5.0000                   (X_U1.94)    3.7500                       

(X_U1.95)    5.0000                   (X_U1.96)-815.0E-06                       

(X_U1.97)     .6835                   (X_U1.98)    -.0165                       

(X_U1.99)    9.4101                   (X_U1.100)  -74.0900                  

Resuming Simulation with the following settings
ITL4 = 1000
ABSTOL = 1.58e-08

Convergence problem in transient analysis at Time =  465.7E-15
         Time step =  465.7E-15, minimum allowable step size =  2.500E-12

  These voltages failed to converge:

    V(N00150)                 =    25.16mV  \   446.70mV
    V(VOUT)                   =   234.47mV  \     1.519V
    V(N00366)                 =   -11.21mV  \     1.503V
    V(N00315)                 =   -22.42mV  \    13.46mV
    V(N00783)                 =     5.000V  \     1.522V
    V(N00934)                 =     5.000V  \     1.522V
    V(X_U1.5)                 =     7.000V  \     2.131V
    V(X_U1.7)                 =     5.553V  \   512.48mV
    V(X_U1.8)                 =     5.000V  \   463.31mV
    V(X_U1.9)                 =     5.000V  \   463.31mV
    V(X_U1.10)                =     5.000V  \   463.31mV
    V(X_U1.11)                =     5.000V  \   463.31mV
    V(X_U1.12)                =     5.000V  \   463.31mV
    V(X_U1.13)                =     5.000V  \   463.31mV
    V(X_U1.14)                =     4.958V  \   463.31mV
    V(X_U1.15)                =     4.958V  \   463.31mV
    V(X_U1.16)                =     4.958V  \     1.522V
    V(X_U1.17)                =     5.000V  \     1.522V
    V(X_U1.18)                =     4.669V  \   775.96mV
    V(X_U1.19)                =   251.63mV  \   775.96mV
    V(X_U1.20)                =     5.000V  \   463.31mV
    V(X_U1.21)                =     5.000V  \   463.31mV
    V(X_U1.22)                =     5.000V  \   463.32mV
    V(X_U1.23)                =   243.40mV  \     1.519V
    V(X_U1.24)                =   623.88mV  \   564.78mV
    V(X_U1.25)                =   623.88mV  \   564.78mV
    V(X_U1.26)                =   742.99mV  \   683.89mV
    V(X_U1.27)                =   742.99mV  \   683.89mV
    V(X_U1.28)                =    25.16mV  \   446.70mV
    V(X_U1.29)                =     2.777V  \    13.47mV
    V(X_U1.30)                =     5.000V  \   141.04mV
    V(X_U1.31)                =     5.000V  \   141.04mV
    V(X_U1.32)                =     1.401V  \    21.32mV
    V(X_U1.33)                =     1.401V  \    70.04mV
    V(X_U1.34)                =     1.747V  \    14.10uV
    V(X_U1.35)                =     1.747V  \    14.10uV
    V(X_U1.36)                =   489.57mV  \    2.132uV
    V(X_U1.37)                =   -17.53mV  \    13.46mV
    V(X_U1.38)                =    25.16mV  \   135.98mV
    V(X_U1.39)                =     2.777V  \    4.099mV
    V(X_U1.40)                =     1.380V  \    13.46mV
    V(X_U1.41)                =     5.000V  \   463.31mV
    V(X_U1.42)                =   243.40mV  \     1.519V
    V(X_U1.43)                =     5.898V  \   559.47mV
    V(X_U1.44)                =   254.01mV  \     1.519V
    V(X_U1.45)                =     3.767V  \   396.11mV
    V(X_U1.46)                =     3.769V  \  -265.74mV
    V(X_U1.47)                =     5.000V  \   463.31mV
    V(X_U1.48)                =     2.777V  \    13.47mV
    V(X_U1.49)                =     5.000V  \   463.31mV
    V(X_U1.50)                =    25.16mV  \   446.70mV
    V(X_U1.51)                =     6.231V  \     1.192V
    V(X_U1.52)                =     3.767V  \   396.11mV
    V(X_U1.53)                =     5.898V  \   559.47mV
    V(X_U1.54)                =     5.000V  \   463.31mV
    V(X_U1.55)                =     4.310V  \   431.30mV
    V(X_U1.56)                =     2.777V  \    13.47mV
    V(X_U1.57)                =     5.000V  \   463.31mV
    V(X_U1.58)                =     4.051V  \  -250.33mV
    V(X_U1.59)                =     5.000V  \   463.31mV
    V(X_U1.60)                =     5.000V  \   463.31mV
    V(X_U1.61)                =     2.727V  \   446.70mV
    V(X_U1.62)                =     5.000V  \   463.31mV
    V(X_U1.63)                =   -323.01V  \     94.69V
    V(X_U1.64)                =     6.375V  \     1.373V
    V(X_U1.65)                =     5.898V  \   779.19mV
    V(X_U1.66)                =     3.767V  \   242.55mV
    V(X_U1.67)                =     1.000V  \    92.66mV
    V(X_U1.68)                =     34.67V  \     1.622V
    V(X_U1.69)                =    -25.00V  \  -382.90mV
    V(X_U1.70)                =    -10.00V  \     4.183V
    V(X_U1.71)                =     19.67V  \    -2.944V
    V(X_U1.72)                =     4.290V  \   466.16mV
    V(X_U1.73)                =     3.223V  \   413.09mV
    V(X_U1.74)                =     5.000V  \   463.31mV
    V(X_U1.75)                =     6.000V  \   767.72mV
    V(X_U1.76)                =     6.000V  \   767.72mV
    V(X_U1.77)                =     6.000V  \   767.72mV
    V(X_U1.78)                =     4.288V  \  -242.20mV
    V(X_U1.79)                =     6.000V  \   767.72mV
    V(X_U1.80)                =     5.000V  \     1.522V
    V(X_U1.81)                =     7.000V  \     1.578V
    V(X_U1.82)                =     6.000V  \   767.72mV
    V(X_U1.83)                =     5.000V  \   463.31mV
    V(X_U1.84)                =     2.778V  \    13.77mV
    V(X_U1.85)                =     5.000V  \   463.31mV
    V(X_U1.86)                =     5.000V  \   463.31mV
    V(X_U1.87)                =    25.16mV  \   446.70mV
    V(X_U1.88)                =     5.000V  \   463.31mV
    V(X_U1.89)                =     5.000V  \   463.31mV
    V(X_U1.90)                =     5.000V  \   463.31mV
    V(X_U1.91)                =     5.000V  \   463.31mV
    V(X_U1.92)                =     2.778V  \    13.77mV
    V(X_U1.93)                =     5.000V  \   463.31mV
    V(X_U1.94)                =     3.750V  \    82.81mV
    V(X_U1.95)                =     5.000V  \   463.31mV
    V(X_U1.96)                =  -814.99uV  \   -1.066mV
    V(X_U1.97)                =   683.52mV  \   624.30mV
    V(X_U1.98)                =   -16.48mV  \   411.22mV
    V(X_U1.99)                =     9.410V  \    -71.48V
    V(X_U1.100)               =    -74.09V  \    -96.89V

  These supply currents failed to converge:

    I(X_U1.E2)                =   -20.77mA  \   223.90uA
    I(X_U1.E3)                =   750.24mA  \    10.00GA
    I(X_U1.E4)                =  -620.45nA  \   -1.584nA
    I(X_U1.E5)                =  -174.69mA  \   -1.410uA
    I(X_U1.E6)                =  -174.69mA  \   -1.410uA
    I(X_U1.E7)                =   -48.96mA  \  -213.19nA
    I(X_U1.E10)               =    -3.009A  \   716.21nA
    I(X_U1.E11)               =    -3.009A  \   716.21nA
    I(X_U1.E12)               =    -3.009A  \   716.21nA
    I(X_U1.E14)               =   -21.75mA  \   -95.11uA
    I(X_U1.E17)               =   -1.376mA  \    65.94uA
    I(X_U1.E18)               =    1.376mA  \   -65.94uA
    I(X_U1.E24)               =    -9.88nA  \     9.53nA
    I(X_U1.E100)              =   -9.409uA  \    71.48uA
    I(X_U1.L1)                =    8.319uA  \    6.399uA
    I(V_VDD)                  =   -10.96mA  \   -24.43uA
    I(V_VSS)                  =     2.630A  \    10.00GA
    I(X_U1.VEN)               =    -2.631A  \   -10.00GA
    I(X_U1.V79)               =   -49.75uA  \  -715.43nA
    I(X_U1.V119)              =   -16.48nA  \   411.22nA

  These devices failed to converge:
    X_U1.D6   X_U1.D7   X_U1.D8   X_U1.D9   X_U1.D10  X_U1.D11  X_U1.D14  
    X_U1.D17  X_U1.D18  X_U1.D46  X_U1.J3   X_U1.J4   X_U1.M1   X_U1.M2   
    X_U1.M3   X_U1.M8   X_U1.M23  X_U1.M41  X_U1.M42  X_U1.M44  X_U1.M45  
    X_U1.M46  X_U1.M50  



  Last node voltages tried were:

 NODE   VOLTAGE     NODE   VOLTAGE     NODE   VOLTAGE     NODE   VOLTAGE


( VOUT)     .2345  (N00150)     .0252 (N00315)    -.0224 (N00366)    -.0112     

(N00783)    5.0000 (N00934)    5.0000 (X_U1.5)    7.0000 (X_U1.7)    5.5525     

(X_U1.8)    5.0000 (X_U1.9)    5.0000 (X_U1.10)    5.0000                       

(X_U1.11)    5.0000                   (X_U1.12)    5.0000                       

(X_U1.13)    5.0000                   (X_U1.14)    4.9575                       

(X_U1.15)    4.9575                   (X_U1.16)    4.9575                       

(X_U1.17)    5.0000                   (X_U1.18)    4.6687                       

(X_U1.19)     .2516                   (X_U1.20)    4.9997                       

(X_U1.21)    5.0000                   (X_U1.22)    5.0003                       

(X_U1.23)     .2434                   (X_U1.24)     .6239                       

(X_U1.25)     .6239                   (X_U1.26)     .7430                       

(X_U1.27)     .7430                   (X_U1.28)     .0252                       

(X_U1.29)    2.7774                   (X_U1.30)    5.0000                       

(X_U1.31)    5.0000                   (X_U1.32)    1.4013                       

(X_U1.33)    1.4013                   (X_U1.34)    1.7468                       

(X_U1.35)    1.7468                   (X_U1.36)     .4896                       

(X_U1.37)    -.0175                   (X_U1.38)     .0252                       

(X_U1.39)    2.7774                   (X_U1.40)    1.3800                       

(X_U1.41)    5.0000                   (X_U1.42)     .2434                       

(X_U1.43)    5.8977                   (X_U1.44)     .2540                       

(X_U1.45)    3.7667                   (X_U1.46)    3.7688                       

(X_U1.47)    5.0000                   (X_U1.48)    2.7774                       

(X_U1.49)    5.0000                   (X_U1.50)     .0252                       

(X_U1.51)    6.2312                   (X_U1.52)    3.7667                       

(X_U1.53)    5.8977                   (X_U1.54)    5.0000                       

(X_U1.55)    4.3103                   (X_U1.56)    2.7774                       

(X_U1.57)    5.0000                   (X_U1.58)    4.0513                       

(X_U1.59)    5.0000                   (X_U1.60)    5.0000                       

(X_U1.61)    2.7271                   (X_U1.62)    5.0000                       

(X_U1.63) -323.0100                   (X_U1.64)    6.3746                       

(X_U1.65)    5.8977                   (X_U1.66)    3.7667                       

(X_U1.67)    1.0000                   (X_U1.68)   34.6690                       

(X_U1.69)  -25.0000                   (X_U1.70)  -10.0000                       

(X_U1.71)   19.6690                   (X_U1.72)    4.2903                       

(X_U1.73)    3.2229                   (X_U1.74)    5.0000                       

(X_U1.75)    6.0000                   (X_U1.76)    6.0000                       

(X_U1.77)    6.0000                   (X_U1.78)    4.2882                       

(X_U1.79)    6.0000                   (X_U1.80)    5.0000                       

(X_U1.81)    7.0000                   (X_U1.82)    6.0000                       

(X_U1.83)    5.0000                   (X_U1.84)    2.7784                       

(X_U1.85)    5.0000                   (X_U1.86)    5.0000                       

(X_U1.87)     .0252                   (X_U1.88)    5.0000                       

(X_U1.89)    5.0000                   (X_U1.90)    5.0000                       

(X_U1.91)    5.0000                   (X_U1.92)    2.7784                       

(X_U1.93)    5.0000                   (X_U1.94)    3.7500                       

(X_U1.95)    5.0000                   (X_U1.96)-815.0E-06                       

(X_U1.97)     .6835                   (X_U1.98)    -.0165                       

(X_U1.99)    9.4101                   (X_U1.100)  -74.0900                  

Resuming Simulation with the following settings
ABSTOL = 1e-06

Convergence problem in transient analysis at Time =  465.7E-15
         Time step =  465.7E-15, minimum allowable step size =  2.500E-12

  These voltages failed to converge:

    V(N00150)                 =    25.16mV  \   446.70mV
    V(VOUT)                   =   234.47mV  \     1.519V
    V(N00366)                 =   -11.21mV  \     1.503V
    V(N00315)                 =   -22.42mV  \    13.46mV
    V(N00783)                 =     5.000V  \     1.522V
    V(N00934)                 =     5.000V  \     1.522V
    V(X_U1.5)                 =     7.000V  \     2.131V
    V(X_U1.7)                 =     5.553V  \   512.48mV
    V(X_U1.8)                 =     5.000V  \   463.31mV
    V(X_U1.9)                 =     5.000V  \   463.31mV
    V(X_U1.10)                =     5.000V  \   463.31mV
    V(X_U1.11)                =     5.000V  \   463.31mV
    V(X_U1.12)                =     5.000V  \   463.31mV
    V(X_U1.13)                =     5.000V  \   463.31mV
    V(X_U1.14)                =     4.958V  \   463.31mV
    V(X_U1.15)                =     4.958V  \   463.31mV
    V(X_U1.16)                =     4.958V  \     1.522V
    V(X_U1.17)                =     5.000V  \     1.522V
    V(X_U1.18)                =     4.669V  \   775.96mV
    V(X_U1.19)                =   251.63mV  \   775.96mV
    V(X_U1.20)                =     5.000V  \   463.31mV
    V(X_U1.21)                =     5.000V  \   463.31mV
    V(X_U1.22)                =     5.000V  \   463.32mV
    V(X_U1.23)                =   243.40mV  \     1.519V
    V(X_U1.24)                =   623.88mV  \   564.78mV
    V(X_U1.25)                =   623.88mV  \   564.78mV
    V(X_U1.26)                =   742.99mV  \   683.89mV
    V(X_U1.27)                =   742.99mV  \   683.89mV
    V(X_U1.28)                =    25.16mV  \   446.70mV
    V(X_U1.29)                =     2.777V  \    13.47mV
    V(X_U1.30)                =     5.000V  \   141.04mV
    V(X_U1.31)                =     5.000V  \   141.04mV
    V(X_U1.32)                =     1.401V  \    21.32mV
    V(X_U1.33)                =     1.401V  \    70.04mV
    V(X_U1.34)                =     1.747V  \    14.10uV
    V(X_U1.35)                =     1.747V  \    14.10uV
    V(X_U1.36)                =   489.57mV  \    2.132uV
    V(X_U1.37)                =   -17.53mV  \    13.46mV
    V(X_U1.38)                =    25.16mV  \   135.98mV
    V(X_U1.39)                =     2.777V  \    4.099mV
    V(X_U1.40)                =     1.380V  \    13.46mV
    V(X_U1.41)                =     5.000V  \   463.31mV
    V(X_U1.42)                =   243.40mV  \     1.519V
    V(X_U1.43)                =     5.898V  \   559.47mV
    V(X_U1.44)                =   254.01mV  \     1.519V
    V(X_U1.45)                =     3.767V  \   396.11mV
    V(X_U1.46)                =     3.769V  \  -265.74mV
    V(X_U1.47)                =     5.000V  \   463.31mV
    V(X_U1.48)                =     2.777V  \    13.47mV
    V(X_U1.49)                =     5.000V  \   463.31mV
    V(X_U1.50)                =    25.16mV  \   446.70mV
    V(X_U1.51)                =     6.231V  \     1.192V
    V(X_U1.52)                =     3.767V  \   396.11mV
    V(X_U1.53)                =     5.898V  \   559.47mV
    V(X_U1.54)                =     5.000V  \   463.31mV
    V(X_U1.55)                =     4.310V  \   431.30mV
    V(X_U1.56)                =     2.777V  \    13.47mV
    V(X_U1.57)                =     5.000V  \   463.31mV
    V(X_U1.58)                =     4.051V  \  -250.33mV
    V(X_U1.59)                =     5.000V  \   463.31mV
    V(X_U1.60)                =     5.000V  \   463.31mV
    V(X_U1.61)                =     2.727V  \   446.70mV
    V(X_U1.62)                =     5.000V  \   463.31mV
    V(X_U1.63)                =   -323.01V  \     94.69V
    V(X_U1.64)                =     6.375V  \     1.373V
    V(X_U1.65)                =     5.898V  \   779.19mV
    V(X_U1.66)                =     3.767V  \   242.55mV
    V(X_U1.67)                =     1.000V  \    92.66mV
    V(X_U1.68)                =     34.67V  \     1.622V
    V(X_U1.69)                =    -25.00V  \  -382.90mV
    V(X_U1.70)                =    -10.00V  \     4.183V
    V(X_U1.71)                =     19.67V  \    -2.944V
    V(X_U1.72)                =     4.290V  \   466.16mV
    V(X_U1.73)                =     3.223V  \   413.09mV
    V(X_U1.74)                =     5.000V  \   463.31mV
    V(X_U1.75)                =     6.000V  \   767.72mV
    V(X_U1.76)                =     6.000V  \   767.72mV
    V(X_U1.77)                =     6.000V  \   767.72mV
    V(X_U1.78)                =     4.288V  \  -242.20mV
    V(X_U1.79)                =     6.000V  \   767.72mV
    V(X_U1.80)                =     5.000V  \     1.522V
    V(X_U1.81)                =     7.000V  \     1.578V
    V(X_U1.82)                =     6.000V  \   767.72mV
    V(X_U1.83)                =     5.000V  \   463.31mV
    V(X_U1.84)                =     2.778V  \    13.77mV
    V(X_U1.85)                =     5.000V  \   463.31mV
    V(X_U1.86)                =     5.000V  \   463.31mV
    V(X_U1.87)                =    25.16mV  \   446.70mV
    V(X_U1.88)                =     5.000V  \   463.31mV
    V(X_U1.89)                =     5.000V  \   463.31mV
    V(X_U1.90)                =     5.000V  \   463.31mV
    V(X_U1.91)                =     5.000V  \   463.31mV
    V(X_U1.92)                =     2.778V  \    13.77mV
    V(X_U1.93)                =     5.000V  \   463.31mV
    V(X_U1.94)                =     3.750V  \    82.81mV
    V(X_U1.95)                =     5.000V  \   463.31mV
    V(X_U1.96)                =  -814.99uV  \   -1.066mV
    V(X_U1.97)                =   683.52mV  \   624.30mV
    V(X_U1.98)                =   -16.48mV  \   411.22mV
    V(X_U1.99)                =     9.410V  \    -71.48V
    V(X_U1.100)               =    -74.09V  \    -96.89V

  These supply currents failed to converge:

    I(X_U1.E2)                =   -20.77mA  \   223.90uA
    I(X_U1.E3)                =   750.24mA  \    10.00GA
    I(X_U1.E5)                =  -174.69mA  \   -1.410uA
    I(X_U1.E6)                =  -174.69mA  \   -1.410uA
    I(X_U1.E7)                =   -48.96mA  \  -213.19nA
    I(X_U1.E10)               =    -3.009A  \   716.21nA
    I(X_U1.E11)               =    -3.009A  \   716.21nA
    I(X_U1.E12)               =    -3.009A  \   716.21nA
    I(X_U1.E14)               =   -21.75mA  \   -95.11uA
    I(X_U1.E17)               =   -1.376mA  \    65.94uA
    I(X_U1.E18)               =    1.376mA  \   -65.94uA
    I(X_U1.E100)              =   -9.409uA  \    71.48uA
    I(X_U1.L1)                =    8.319uA  \    6.399uA
    I(V_VDD)                  =   -10.96mA  \   -24.43uA
    I(V_VSS)                  =     2.630A  \    10.00GA
    I(X_U1.VEN)               =    -2.631A  \   -10.00GA
    I(X_U1.V79)               =   -49.75uA  \  -715.43nA

  These devices failed to converge:
    X_U1.D6   X_U1.D7   X_U1.D8   X_U1.D9   X_U1.D10  X_U1.D14  X_U1.D17  
    X_U1.D18  X_U1.D46  X_U1.J3   X_U1.J4   X_U1.M1   X_U1.M2   X_U1.M3   
    X_U1.M8   X_U1.M23  X_U1.M41  X_U1.M42  X_U1.M44  X_U1.M46  X_U1.M50  



  Last node voltages tried were:

 NODE   VOLTAGE     NODE   VOLTAGE     NODE   VOLTAGE     NODE   VOLTAGE


( VOUT)     .2345  (N00150)     .0252 (N00315)    -.0224 (N00366)    -.0112     

(N00783)    5.0000 (N00934)    5.0000 (X_U1.5)    7.0000 (X_U1.7)    5.5525     

(X_U1.8)    5.0000 (X_U1.9)    5.0000 (X_U1.10)    5.0000                       

(X_U1.11)    5.0000                   (X_U1.12)    5.0000                       

(X_U1.13)    5.0000                   (X_U1.14)    4.9575                       

(X_U1.15)    4.9575                   (X_U1.16)    4.9575                       

(X_U1.17)    5.0000                   (X_U1.18)    4.6687                       

(X_U1.19)     .2516                   (X_U1.20)    4.9997                       

(X_U1.21)    5.0000                   (X_U1.22)    5.0003                       

(X_U1.23)     .2434                   (X_U1.24)     .6239                       

(X_U1.25)     .6239                   (X_U1.26)     .7430                       

(X_U1.27)     .7430                   (X_U1.28)     .0252                       

(X_U1.29)    2.7774                   (X_U1.30)    5.0000                       

(X_U1.31)    5.0000                   (X_U1.32)    1.4013                       

(X_U1.33)    1.4013                   (X_U1.34)    1.7468                       

(X_U1.35)    1.7468                   (X_U1.36)     .4896                       

(X_U1.37)    -.0175                   (X_U1.38)     .0252                       

(X_U1.39)    2.7774                   (X_U1.40)    1.3800                       

(X_U1.41)    5.0000                   (X_U1.42)     .2434                       

(X_U1.43)    5.8977                   (X_U1.44)     .2540                       

(X_U1.45)    3.7667                   (X_U1.46)    3.7688                       

(X_U1.47)    5.0000                   (X_U1.48)    2.7774                       

(X_U1.49)    5.0000                   (X_U1.50)     .0252                       

(X_U1.51)    6.2312                   (X_U1.52)    3.7667                       

(X_U1.53)    5.8977                   (X_U1.54)    5.0000                       

(X_U1.55)    4.3103                   (X_U1.56)    2.7774                       

(X_U1.57)    5.0000                   (X_U1.58)    4.0513                       

(X_U1.59)    5.0000                   (X_U1.60)    5.0000                       

(X_U1.61)    2.7271                   (X_U1.62)    5.0000                       

(X_U1.63) -323.0100                   (X_U1.64)    6.3746                       

(X_U1.65)    5.8977                   (X_U1.66)    3.7667                       

(X_U1.67)    1.0000                   (X_U1.68)   34.6690                       

(X_U1.69)  -25.0000                   (X_U1.70)  -10.0000                       

(X_U1.71)   19.6690                   (X_U1.72)    4.2903                       

(X_U1.73)    3.2229                   (X_U1.74)    5.0000                       

(X_U1.75)    6.0000                   (X_U1.76)    6.0000                       

(X_U1.77)    6.0000                   (X_U1.78)    4.2882                       

(X_U1.79)    6.0000                   (X_U1.80)    5.0000                       

(X_U1.81)    7.0000                   (X_U1.82)    6.0000                       

(X_U1.83)    5.0000                   (X_U1.84)    2.7784                       

(X_U1.85)    5.0000                   (X_U1.86)    5.0000                       

(X_U1.87)     .0252                   (X_U1.88)    5.0000                       

(X_U1.89)    5.0000                   (X_U1.90)    5.0000                       

(X_U1.91)    5.0000                   (X_U1.92)    2.7784                       

(X_U1.93)    5.0000                   (X_U1.94)    3.7500                       

(X_U1.95)    5.0000                   (X_U1.96)-815.0E-06                       

(X_U1.97)     .6835                   (X_U1.98)    -.0165                       

(X_U1.99)    9.4101                   (X_U1.100)  -74.0900                  

Resuming Simulation with the following settings
RELTOL = 0.0086

Convergence problem in transient analysis at Time =  465.7E-15
         Time step =  465.7E-15, minimum allowable step size =  2.500E-12

  These voltages failed to converge:

    V(N00150)                 =    25.16mV  \   446.70mV
    V(VOUT)                   =   234.47mV  \     1.519V
    V(N00366)                 =   -11.21mV  \     1.503V
    V(N00315)                 =   -22.42mV  \    13.46mV
    V(N00783)                 =     5.000V  \     1.522V
    V(N00934)                 =     5.000V  \     1.522V
    V(X_U1.5)                 =     7.000V  \     2.131V
    V(X_U1.7)                 =     5.553V  \   512.48mV
    V(X_U1.8)                 =     5.000V  \   463.31mV
    V(X_U1.9)                 =     5.000V  \   463.31mV
    V(X_U1.10)                =     5.000V  \   463.31mV
    V(X_U1.11)                =     5.000V  \   463.31mV
    V(X_U1.12)                =     5.000V  \   463.31mV
    V(X_U1.13)                =     5.000V  \   463.31mV
    V(X_U1.14)                =     4.958V  \   463.31mV
    V(X_U1.15)                =     4.958V  \   463.31mV
    V(X_U1.16)                =     4.958V  \     1.522V
    V(X_U1.17)                =     5.000V  \     1.522V
    V(X_U1.18)                =     4.669V  \   775.96mV
    V(X_U1.19)                =   251.63mV  \   775.96mV
    V(X_U1.20)                =     5.000V  \   463.31mV
    V(X_U1.21)                =     5.000V  \   463.31mV
    V(X_U1.22)                =     5.000V  \   463.32mV
    V(X_U1.23)                =   243.40mV  \     1.519V
    V(X_U1.24)                =   623.88mV  \   564.78mV
    V(X_U1.25)                =   623.88mV  \   564.78mV
    V(X_U1.26)                =   742.99mV  \   683.89mV
    V(X_U1.27)                =   742.99mV  \   683.89mV
    V(X_U1.28)                =    25.16mV  \   446.70mV
    V(X_U1.29)                =     2.777V  \    13.47mV
    V(X_U1.30)                =     5.000V  \   141.04mV
    V(X_U1.31)                =     5.000V  \   141.04mV
    V(X_U1.32)                =     1.401V  \    21.32mV
    V(X_U1.33)                =     1.401V  \    70.04mV
    V(X_U1.34)                =     1.747V  \    14.10uV
    V(X_U1.35)                =     1.747V  \    14.10uV
    V(X_U1.36)                =   489.57mV  \    2.132uV
    V(X_U1.37)                =   -17.53mV  \    13.46mV
    V(X_U1.38)                =    25.16mV  \   135.98mV
    V(X_U1.39)                =     2.777V  \    4.099mV
    V(X_U1.40)                =     1.380V  \    13.46mV
    V(X_U1.41)                =     5.000V  \   463.31mV
    V(X_U1.42)                =   243.40mV  \     1.519V
    V(X_U1.43)                =     5.898V  \   559.47mV
    V(X_U1.44)                =   254.01mV  \     1.519V
    V(X_U1.45)                =     3.767V  \   396.11mV
    V(X_U1.46)                =     3.769V  \  -265.74mV
    V(X_U1.47)                =     5.000V  \   463.31mV
    V(X_U1.48)                =     2.777V  \    13.47mV
    V(X_U1.49)                =     5.000V  \   463.31mV
    V(X_U1.50)                =    25.16mV  \   446.70mV
    V(X_U1.51)                =     6.231V  \     1.192V
    V(X_U1.52)                =     3.767V  \   396.11mV
    V(X_U1.53)                =     5.898V  \   559.47mV
    V(X_U1.54)                =     5.000V  \   463.31mV
    V(X_U1.55)                =     4.310V  \   431.30mV
    V(X_U1.56)                =     2.777V  \    13.47mV
    V(X_U1.57)                =     5.000V  \   463.31mV
    V(X_U1.58)                =     3.929V  \  -250.33mV
    V(X_U1.59)                =     5.000V  \   463.31mV
    V(X_U1.60)                =     5.000V  \   463.31mV
    V(X_U1.61)                =     2.727V  \   446.70mV
    V(X_U1.62)                =     5.000V  \   463.31mV
    V(X_U1.63)                =   -323.01V  \     94.69V
    V(X_U1.64)                =     6.375V  \     1.373V
    V(X_U1.65)                =     5.898V  \   779.19mV
    V(X_U1.66)                =     3.767V  \   242.55mV
    V(X_U1.67)                =     1.000V  \    92.66mV
    V(X_U1.68)                =     34.67V  \     1.622V
    V(X_U1.69)                =    -25.00V  \  -382.90mV
    V(X_U1.70)                =    -10.00V  \     4.183V
    V(X_U1.71)                =     19.67V  \    -2.944V
    V(X_U1.72)                =     4.290V  \   466.16mV
    V(X_U1.73)                =     3.223V  \   413.09mV
    V(X_U1.74)                =     5.000V  \   463.31mV
    V(X_U1.75)                =     6.000V  \   767.72mV
    V(X_U1.76)                =     6.000V  \   767.72mV
    V(X_U1.77)                =     6.000V  \   767.72mV
    V(X_U1.78)                =     4.288V  \  -242.20mV
    V(X_U1.79)                =     6.000V  \   767.72mV
    V(X_U1.80)                =     5.000V  \     1.522V
    V(X_U1.81)                =     7.000V  \     1.578V
    V(X_U1.82)                =     6.000V  \   767.72mV
    V(X_U1.83)                =     5.000V  \   463.31mV
    V(X_U1.84)                =     2.778V  \    13.77mV
    V(X_U1.85)                =     5.000V  \   463.31mV
    V(X_U1.86)                =     5.000V  \   463.31mV
    V(X_U1.87)                =    25.16mV  \   446.70mV
    V(X_U1.88)                =     5.000V  \   463.31mV
    V(X_U1.89)                =     5.000V  \   463.31mV
    V(X_U1.90)                =     5.000V  \   463.31mV
    V(X_U1.91)                =     5.000V  \   463.31mV
    V(X_U1.92)                =     2.778V  \    13.77mV
    V(X_U1.93)                =     5.000V  \   463.31mV
    V(X_U1.94)                =     3.750V  \    82.81mV
    V(X_U1.95)                =     5.000V  \   463.31mV
    V(X_U1.96)                =  -814.99uV  \   -1.066mV
    V(X_U1.97)                =   683.52mV  \   624.30mV
    V(X_U1.98)                =   -16.48mV  \   411.22mV
    V(X_U1.99)                =     9.410V  \    -71.48V
    V(X_U1.100)               =    -74.09V  \    -96.89V

  These supply currents failed to converge:

    I(X_U1.E2)                =   -20.77mA  \   223.90uA
    I(X_U1.E3)                =   750.24mA  \    10.00GA
    I(X_U1.E5)                =  -174.69mA  \   -1.410uA
    I(X_U1.E6)                =  -174.69mA  \   -1.410uA
    I(X_U1.E7)                =   -48.96mA  \  -213.19nA
    I(X_U1.E10)               =    -3.009A  \   716.21nA
    I(X_U1.E11)               =    -3.009A  \   716.21nA
    I(X_U1.E12)               =    -3.009A  \   716.21nA
[...]
    V(X_U1.14)                =     5.000V  \         0V
    V(X_U1.15)                =     5.000V  \         0V
    V(X_U1.16)                =     5.000V  \         0V
    V(X_U1.17)                =     5.000V  \         0V
    V(X_U1.20)                =     5.000V  \         0V
    V(X_U1.21)                =     5.000V  \         0V
    V(X_U1.22)                =     5.000V  \         0V
    V(X_U1.24)                =    41.90MV  \         0V
    V(X_U1.25)                =    41.90MV  \         0V
    V(X_U1.26)                =    49.90MV  \         0V
    V(X_U1.27)                =    49.90MV  \         0V
    V(X_U1.28)                =    1.127mV  \         0V
    V(X_U1.29)                =     7.749V  \         0V
    V(X_U1.30)                =     5.000V  \         0V
    V(X_U1.31)                =     5.000V  \         0V
    V(X_U1.32)                =     3.875V  \         0V
    V(X_U1.33)                =     3.875V  \         0V
    V(X_U1.34)                =     4.859V  \         0V
    V(X_U1.35)                =     4.859V  \         0V
    V(X_U1.36)                =     3.766V  \         0V
    V(X_U1.37)                =   -24.35mV  \         0V
    V(X_U1.38)                =    1.127mV  \         0V
    V(X_U1.39)                =     7.749V  \         0V
    V(X_U1.40)                =     3.863V  \         0V
    V(X_U1.41)                =     5.000V  \         0V
    V(X_U1.43)                =    7.995KV  \         0V
    V(X_U1.45)                =   -7.985KV  \         0V
    V(X_U1.46)                =   -7.993KV  \         0V
    V(X_U1.47)                =     5.000V  \         0V
    V(X_U1.48)                =     7.749V  \         0V
    V(X_U1.49)                =     5.000V  \         0V
    V(X_U1.50)                =    1.127mV  \         0V
    V(X_U1.51)                =    8.003KV  \         0V
    V(X_U1.52)                =   -7.985KV  \         0V
    V(X_U1.53)                =    7.995KV  \         0V
    V(X_U1.54)                =     5.000V  \         0V
    V(X_U1.55)                =   -3.259KV  \         0V
    V(X_U1.56)                =     7.749V  \         0V
    V(X_U1.57)                =     5.000V  \         0V
    V(X_U1.58)                =   -18.33MV  \         0V
    V(X_U1.59)                =     5.000V  \         0V
    V(X_U1.60)                =     5.000V  \         0V
    V(X_U1.61)                =     7.747V  \         0V
    V(X_U1.62)                =     5.000V  \         0V
    V(X_U1.63)                =   -5.025KV  \         0V
    V(X_U1.64)                =   -4.866KV  \         0V
    V(X_U1.65)                =    7.995KV  \         0V
    V(X_U1.66)                =   -7.985KV  \         0V
    V(X_U1.67)                =     1.000V  \         0V
    V(X_U1.68)                =     30.00V  \         0V
    V(X_U1.69)                =    -25.00V  \         0V
    V(X_U1.70)                =    -10.00V  \         0V
    V(X_U1.71)                =     15.00V  \         0V
    V(X_U1.72)                =     1.667V  \         0V
    V(X_U1.73)                =     1.667V  \         0V
    V(X_U1.74)                =     5.000V  \         0V
    V(X_U1.75)                =     6.000V  \         0V
    V(X_U1.76)                =     6.000V  \         0V
    V(X_U1.77)                =     6.000V  \         0V
    V(X_U1.78)                =   -33.33KV  \         0V
    V(X_U1.79)                =     6.000V  \         0V
    V(X_U1.80)                =     5.000V  \         0V
    V(X_U1.81)                =     7.000V  \         0V
    V(X_U1.82)                =     6.000V  \         0V
    V(X_U1.83)                =     5.000V  \         0V
    V(X_U1.84)                =     7.750V  \         0V
    V(X_U1.85)                =     5.000V  \         0V
    V(X_U1.86)                =     5.000V  \         0V
    V(X_U1.87)                =    1.127mV  \         0V
    V(X_U1.88)                =     5.000V  \         0V
    V(X_U1.89)                =     5.000V  \         0V
    V(X_U1.90)                =     5.000V  \         0V
    V(X_U1.91)                =     5.000V  \         0V
    V(X_U1.92)                =     7.750V  \         0V
    V(X_U1.93)                =     5.000V  \         0V
    V(X_U1.94)                =     3.750V  \         0V
    V(X_U1.95)                =     5.000V  \         0V
    V(X_U1.96)                =    -6.503V  \         0V
    V(X_U1.97)                =    1.001KV  \         0V
    V(X_U1.98)                =    1.000KV  \         0V
    V(X_U1.99)                =  -571.00KV  \         0V
    V(X_U1.100)               =  -571.08KV  \         0V

  These supply currents failed to converge:

    I(X_U1.E2)                =     7.990A  \         0A
    I(X_U1.E3)                =    -7.990A  \         0A
    I(X_U1.E5)                =  -485.86mA  \         0A
    I(X_U1.E6)                =  -485.86mA  \         0A
    I(X_U1.E7)                =  -376.57mA  \         0A
    I(X_U1.E10)               =   -532.61A  \         0A
    I(X_U1.E11)               =   -532.61A  \         0A
    I(X_U1.E12)               =   -532.61A  \         0A
    I(X_U1.E14)               =    98.88uA  \         0A
    I(X_U1.E17)               =   -3.874mA  \         0A
    I(X_U1.E18)               =    3.874mA  \         0A
    I(X_U1.E23)               =   -87.89uA  \         0A
    I(X_U1.E24)               =   -87.89uA  \         0A
    I(X_U1.E100)              =   571.01mA  \         0A
    I(V_VDD)                  =  -424.90uA  \         0A
    I(V_VSS)                  =    120.26A  \         0A
    I(X_U1.VEN)               =   -120.26A  \         0A
    I(X_U1.V119)              =    1.000mA  \         0A
    I(X_U1.V120)              =   -6.503uA  \         0A

  These devices failed to converge:
    X_U1.D6   X_U1.D7   X_U1.D8   X_U1.D9   X_U1.D10  X_U1.D12  X_U1.D13  
    X_U1.D14  X_U1.D46  X_U1.J1   X_U1.J3   X_U1.M3   X_U1.M8   X_U1.M23  
    X_U1.M41  X_U1.M42  X_U1.M44  X_U1.M45  X_U1.M50  



  Last node voltages tried were:

 NODE   VOLTAGE     NODE   VOLTAGE     NODE   VOLTAGE     NODE   VOLTAGE


( VOUT)    -.0014  (N00150)     .0011 (N00315)    -.0620 (N00366)    -.0310     

(N00783)    5.0000 (N00934)    5.0000 (X_U1.5)    7.0000 (X_U1.7) 3268.8000     

(X_U1.8)    5.0003 (X_U1.9)    5.0000 (X_U1.10)    5.0000                       

(X_U1.11)    5.0000                   (X_U1.12)    5.0000                       

(X_U1.13)    5.0003                   (X_U1.14)    4.9997                       

(X_U1.15)    4.9997                   (X_U1.16)    4.9997                       

(X_U1.17)    5.0003                   (X_U1.18) 7.922E-06                       

(X_U1.19)-411.1E-09                   (X_U1.20)    5.0000                       

(X_U1.21)    5.0000                   (X_U1.22)    5.0000                       

(X_U1.23)-411.3E-09                   (X_U1.24) 41.90E+06                       

(X_U1.25) 41.90E+06                   (X_U1.26) 49.90E+06                       

(X_U1.27) 49.90E+06                   (X_U1.28)     .0011                       

(X_U1.29)    7.7494                   (X_U1.30)    5.0000                       

(X_U1.31)    5.0000                   (X_U1.32)    3.8753                       

(X_U1.33)    3.8753                   (X_U1.34)    4.8586                       

(X_U1.35)    4.8586                   (X_U1.36)    3.7657                       

(X_U1.37)    -.0243                   (X_U1.38)     .0011                       

(X_U1.39)    7.7494                   (X_U1.40)    3.8625                       

(X_U1.41)    5.0000                   (X_U1.42)-411.3E-09                       

(X_U1.43) 7994.5000                   (X_U1.44)-411.3E-09                       

(X_U1.45)-7984.6000                   (X_U1.46)-7992.6000                       

(X_U1.47)    5.0000                   (X_U1.48)    7.7494                       

(X_U1.49)    5.0000                   (X_U1.50)     .0011                       

(X_U1.51) 8002.6000                   (X_U1.52)-7984.6000                       

(X_U1.53) 7994.5000                   (X_U1.54)    5.0000                       

(X_U1.55)-3258.8000                   (X_U1.56)    7.7494                       

(X_U1.57)    5.0000                   (X_U1.58)-18.33E+06                       

(X_U1.59)    5.0000                   (X_U1.60)    5.0000                       

(X_U1.61)    7.7472                   (X_U1.62)    5.0000                       

(X_U1.63)-5024.6000                   (X_U1.64)-4866.4000                       

(X_U1.65) 7994.5000                   (X_U1.66)-7984.6000                       

(X_U1.67)    1.0000                   (X_U1.68)   30.0000                       

(X_U1.69)  -25.0000                   (X_U1.70)  -10.0000                       

(X_U1.71)   15.0000                   (X_U1.72)    1.6667                       

(X_U1.73)    1.6667                   (X_U1.74)    5.0000                       

(X_U1.75)    6.0000                   (X_U1.76)    6.0000                       

(X_U1.77)    6.0000                   (X_U1.78)-33.33E+03                       

(X_U1.79)    6.0000                   (X_U1.80)    5.0000                       

(X_U1.81)    7.0000                   (X_U1.82)    6.0000                       

(X_U1.83)    5.0000                   (X_U1.84)    7.7504                       

(X_U1.85)    4.9999                   (X_U1.86)    5.0000                       

(X_U1.87)     .0011                   (X_U1.88)    4.9999                       

(X_U1.89)    4.9999                   (X_U1.90)    5.0000                       

(X_U1.91)    5.0000                   (X_U1.92)    7.7504                       

(X_U1.93)    5.0000                   (X_U1.94)    3.7500                       

(X_U1.95)    5.0000                   (X_U1.96)   -6.5026                       

(X_U1.97) 1000.7000                   (X_U1.98) 1000.0000                       

(X_U1.99)-571.0E+03                   (X_U1.100)-571.1E+03                  

Resuming could not converge the circuit, restarting it now

  These voltages failed to converge:

    V(VOUT)                   =    19.86mV  \   -1.422mV
    V(X_U1.7)                 =     7.049V  \    3.269KV
    V(X_U1.8)                 =     4.616V  \     5.000V
    V(X_U1.13)                =     4.616V  \     5.000V
    V(X_U1.14)                =     4.616V  \     5.000V
    V(X_U1.15)                =     4.616V  \     5.000V
    V(X_U1.16)                =     4.616V  \     5.000V
    V(X_U1.17)                =     4.616V  \     5.000V
    V(X_U1.18)                =    22.36mV  \    7.922uV
    V(X_U1.19)                =    22.34mV  \  -411.07nV
    V(X_U1.23)                =    22.34mV  \  -411.31nV
    V(X_U1.24)                =     1.071V  \    41.90MV
    V(X_U1.25)                =     1.071V  \    41.90MV
    V(X_U1.26)                =     1.080V  \    49.90MV
    V(X_U1.27)                =     1.080V  \    49.90MV
    V(X_U1.42)                =   118.30mV  \  -411.31nV
    V(X_U1.43)                =     7.650V  \    7.995KV
    V(X_U1.44)                =   118.30mV  \  -411.31nV
    V(X_U1.45)                =     2.251V  \   -7.985KV
    V(X_U1.46)                =     2.298V  \   -7.993KV
    V(X_U1.51)                =     7.702V  \    8.003KV
    V(X_U1.52)                =     2.251V  \   -7.985KV
    V(X_U1.53)                =     7.650V  \    7.995KV
    V(X_U1.55)                =     2.852V  \   -3.259KV
    V(X_U1.58)                =     2.300V  \   -18.33MV
    V(X_U1.65)                =     7.650V  \    7.995KV
    V(X_U1.66)                =     2.251V  \   -7.985KV
    V(X_U1.67)                =   514.95mV  \     1.000V
    V(X_U1.68)                =     15.47V  \     30.00V
    V(X_U1.69)                =    -10.45V  \    -25.00V
    V(X_U1.70)                =     4.552V  \    -10.00V
    V(X_U1.71)                =   470.76mV  \     15.00V
    V(X_U1.72)                =     2.207V  \     1.667V
    V(X_U1.75)                =     5.515V  \     6.000V
    V(X_U1.78)                =     2.300V  \   -33.33KV
    V(X_U1.79)                =     5.515V  \     6.000V
    V(X_U1.81)                =     6.030V  \     7.000V
    V(X_U1.96)                =   -10.63mV  \    -6.503V
    V(X_U1.97)                =     2.246V  \    1.001KV
    V(X_U1.98)                =     1.546V  \    1.000KV
    V(X_U1.99)                =   -882.82V  \  -571.00KV
    V(X_U1.100)               =   -966.32V  \  -571.08KV

  These supply currents failed to converge:

    I(X_U1.E2)                =    2.818mA  \     7.990A
    I(X_U1.E3)                =    13.18mA  \    -7.990A
    I(X_U1.E23)               =   -26.40nA  \   -87.89uA
    I(X_U1.E24)               =   -32.99nA  \   -87.89uA
    I(X_U1.E100)              =   882.83uA  \   571.01mA
    I(V_VDD)                  =   -96.15mA  \  -424.90uA
    I(X_U1.V51)               =   -27.50mA  \         0A
    I(X_U1.V119)              =    1.546uA  \    1.000mA
    I(X_U1.V120)              =   -10.63nA  \   -6.503uA

  These devices failed to converge:
    X_U1.D6   X_U1.D7   X_U1.D8   X_U1.D9   X_U1.D10  X_U1.D12  X_U1.D13  
    X_U1.D14  X_U1.D17  X_U1.D46  X_U1.J1   X_U1.J3   X_U1.M1   X_U1.M2   
    X_U1.M3   X_U1.M8   X_U1.M23  X_U1.M41  X_U1.M42  X_U1.M45  X_U1.M46  

ERROR(ORPSIM-15138): Convergence problem in Transient Analysis at Time =  7.276E-15.
         Time step =  7.276E-15, minimum allowable step size =  50.00E-15

  These voltages failed to converge:

    V(VOUT)                   =    13.21mV  \    19.86mV
    V(X_U1.7)                 =     6.083V  \     7.049V
    V(X_U1.18)                =   391.58mV  \    22.36mV
    V(X_U1.19)                =    15.37mV  \    22.34mV
    V(X_U1.23)                =    15.36mV  \    22.34mV
    V(X_U1.42)                =   102.51mV  \   118.30mV
    V(X_U1.43)                =     6.658V  \     7.650V
    V(X_U1.44)                =    56.24mV  \   118.30mV
    V(X_U1.45)                =    -1.300V  \     2.251V
    V(X_U1.46)                =     3.295V  \     2.298V
    V(X_U1.51)                =     6.705V  \     7.702V
    V(X_U1.52)                =    -1.300V  \     2.251V
    V(X_U1.53)                =     6.658V  \     7.650V
    V(X_U1.55)                =  -724.88mV  \     2.852V
    V(X_U1.58)                =     3.299V  \     2.300V
    V(X_U1.63)                =    -2.231V  \   -4.923KV
    V(X_U1.64)                =   -4.558KV  \   -4.923KV
    V(X_U1.65)                =     6.658V  \     7.650V
    V(X_U1.66)                =    -1.300V  \     2.251V
    V(X_U1.71)                =   839.98mV  \   470.76mV
    V(X_U1.72)                =     4.537V  \     2.207V
    V(X_U1.73)                =   791.46mV  \     1.603V
    V(X_U1.78)                =     3.300V  \     2.300V
    V(X_U1.96)                =   -1.148mV  \   -10.63mV
    V(X_U1.97)                =   736.57mV  \     2.246V
    V(X_U1.98)                =    36.57mV  \     1.546V
    V(X_U1.99)                =    -20.88V  \   -882.82V
    V(X_U1.100)               =   -104.38V  \   -966.32V

  These supply currents failed to converge:

    I(X_U1.E2)                =   332.26uA  \    2.818mA
    I(X_U1.E3)                =    1.808mA  \    13.18mA
    I(X_U1.E14)               =    4.642mA  \    98.44uA
    I(X_U1.E100)              =    20.88uA  \   882.83uA
    I(V_VDD)                  =   -41.07mA  \   -96.15mA
    I(X_U1.V78)               =  -177.57uA  \   -21.38nA
    I(X_U1.V79)               =   -4.156mA  \  -134.27nA
    I(X_U1.V119)              =    36.57nA  \    1.546uA

  These devices failed to converge:
    X_U1.D6   X_U1.D7   X_U1.D8   X_U1.D9   X_U1.D10  X_U1.D12  X_U1.D13  
    X_U1.D14  X_U1.D17  X_U1.D46  X_U1.J1   X_U1.J3   X_U1.M1   X_U1.M3   
    X_U1.M8   X_U1.M23  X_U1.M45  X_U1.M46  



  Last node voltages tried were:

 NODE   VOLTAGE     NODE   VOLTAGE     NODE   VOLTAGE     NODE   VOLTAGE


( VOUT)     .0132  (N00150)     .0012 (N00315)    -.0620 (N00366)    -.0310     

(N00783)    5.0000 (N00934)    5.0000 (X_U1.5)    7.0000 (X_U1.7)    6.0827     

(X_U1.8)    4.6514 (X_U1.9)    5.0000 (X_U1.10)    5.0000                       

(X_U1.11)    5.0000                   (X_U1.12)    5.0000                       

(X_U1.13)    4.6514                   (X_U1.14)    4.8365                       

(X_U1.15)    4.8365                   (X_U1.16)    4.8365                       

(X_U1.17)    4.6514                   (X_U1.18)     .3916                       

(X_U1.19)     .0154                   (X_U1.20)    4.9998                       

(X_U1.21)    5.0000                   (X_U1.22)    5.0002                       

(X_U1.23)     .0154                   (X_U1.24)    1.0452                       

(X_U1.25)    1.0452                   (X_U1.26)    1.0543                       

(X_U1.27)    1.0543                   (X_U1.28)     .0012                       

(X_U1.29)    7.7494                   (X_U1.30)    5.0000                       

(X_U1.31)    5.0000                   (X_U1.32)    3.8753                       

(X_U1.33)    3.8753                   (X_U1.34)    4.8586                       

(X_U1.35)    4.8586                   (X_U1.36)    3.7657                       

(X_U1.37)    -.0243                   (X_U1.38)     .0012                       

(X_U1.39)    7.7494                   (X_U1.40)    3.8625                       

(X_U1.41)    5.0000                   (X_U1.42)     .1025                       

(X_U1.43)    6.6577                   (X_U1.44)     .0562                       

(X_U1.45)   -1.2999                   (X_U1.46)    3.2950                       

(X_U1.47)    5.0000                   (X_U1.48)    7.7494                       

(X_U1.49)    5.0000                   (X_U1.50)     .0012                       

(X_U1.51)    6.7050                   (X_U1.52)   -1.2999                       

(X_U1.53)    6.6577                   (X_U1.54)    5.0000                       

(X_U1.55)    -.7249                   (X_U1.56)    7.7494                       

(X_U1.57)    5.0000                   (X_U1.58)    3.2989                       

(X_U1.59)    5.0000                   (X_U1.60)    5.0000                       

(X_U1.61)    7.7472                   (X_U1.62)    5.0000                       

(X_U1.63)   -2.2310                   (X_U1.64)-4557.8000                       

(X_U1.65)    6.6577                   (X_U1.66)   -1.2999                       

(X_U1.67)     .5149                   (X_U1.68)   15.8400                       

(X_U1.69)  -10.4480                   (X_U1.70)    4.5516                       

(X_U1.71)     .8400                   (X_U1.72)    4.5373                       

(X_U1.73)     .7915                   (X_U1.74)    5.0000                       

(X_U1.75)    5.5149                   (X_U1.76)    6.0000                       

(X_U1.77)    6.0000                   (X_U1.78)    3.3000                       

(X_U1.79)    5.5149                   (X_U1.80)    5.0000                       

(X_U1.81)    6.0299                   (X_U1.82)    6.0000                       

(X_U1.83)    5.0000                   (X_U1.84)    7.7504                       

(X_U1.85)    5.0000                   (X_U1.86)    5.0000                       

(X_U1.87)     .0012                   (X_U1.88)    5.0000                       

(X_U1.89)    5.0000                   (X_U1.90)    5.0000                       

(X_U1.91)    5.0000                   (X_U1.92)    7.7504                       

(X_U1.93)    5.0000                   (X_U1.94)    3.7500                       

(X_U1.95)    5.0000                   (X_U1.96)    -.0011                       

(X_U1.97)     .7366                   (X_U1.98)     .0366                       

(X_U1.99)  -20.8810                   (X_U1.100) -104.3800                  


**** Interrupt ****
