
**** 10/10/25 20:48:01 *** PSpice 24.1.0 (4 September 2024) *** ID# 0 ********

 ** Profile: "PART1-step1_3"  [ C:\Users\dosanj5\OneDrive - McMaster University\School Files\2025 - 2026\ELEC 3EJ4\Lab 3\Pspice\3EJ3 


 ****     CIRCUIT DESCRIPTION


******************************************************************************




** Creating circuit file "step1_3.cir" 
** WARNING: THIS AUTOMATICALLY GENERATED FILE MAY BE OVERWRITTEN BY SUBSEQUENT SIMULATIONS

*Libraries: 
* Profile Libraries :
* Local Libraries :
* From [PSPICE NETLIST] section of C:\Users\dosanj5\AppData\Roaming\SPB_Data\cdssetup\OrCAD_PSpice\24.1.0\PSpice.ini file:
.lib "C:\Users\dosanj5\OneDrive - McMaster University\School Files\2025 - 2026\ELEC 3EJ4\Model Parts\My2N3906.LIB" 
.lib "C:\Users\dosanj5\OneDrive - McMaster University\School Files\2025 - 2026\ELEC 3EJ4\Model Parts\My2N3904.LIB" 
.lib "nom.lib" 

*Analysis directives: 
.AC DEC 101 100 Hz 1 MegHz
----------------$
ERROR(ORPSIM-16152): Invalid number: Error while converting token 'Hz' to double value. Token can be a constant or expression
.OPTIONS ADVCONV
.PROBE64 V(alias(*)) I(alias(*)) W(alias(*)) D(alias(*)) NOISE(alias(*)) 
.INC "..\PART1.net" 



**** INCLUDING PART1.net ****
* source 3EJ3 LAB 3
R_R1         VB 0  76.8k TC=0,0 
R_R2         N00283 VB  57.6k TC=0,0 
R_R3         N00283 VE  8.06k TC=0,0 
V_VCC         N00252 0 5V
V_VEE         N00283 0 -5V
V_Vsig         N00449 0 DC 0.5Vdc AC 1mVac 0
Q_Q1         VO VB VE MY2N3904 
Q_Q2         N00252 N00449 VO MY2N3904 

**** RESUMING step1_3.cir ****
.END
