
**** 09/18/25 11:41:39 *** PSpice 24.1.0 (4 September 2024) *** ID# 0 ********

 ** Profile: "SCHEMATIC1-dc_sweep"  [ C:\Users\dosanj5\OneDrive - McMaster University\School Files\2025 - 2026\ELEC 3EJ4\Lab 1\PSpice


 ****     CIRCUIT DESCRIPTION


******************************************************************************




** Creating circuit file "dc_sweep.cir" 
** WARNING: THIS AUTOMATICALLY GENERATED FILE MAY BE OVERWRITTEN BY SUBSEQUENT SIMULATIONS

*Libraries: 
* Profile Libraries :
* Local Libraries :
* From [PSPICE NETLIST] section of C:\Users\dosanj5\AppData\Roaming\SPB_Data\cdssetup\OrCAD_PSpice\24.1.0\PSpice.ini file:
.lib "C:\Users\dosanj5\OneDrive - McMaster University\School Files\2025 - 2026\ELEC 3EJ4\Model Parts\My2N3906.LIB" 
.lib "C:\Users\dosanj5\OneDrive - McMaster University\School Files\2025 - 2026\ELEC 3EJ4\Model Parts\My2N3904.LIB" 
.lib "nom.lib" 

*Analysis directives: 
.DC LIN V_VCC 0.5V 5V 0.5V 
.OPTIONS ADVCONV
.PROBE64 V(alias(*)) I(alias(*)) W(alias(*)) D(alias(*)) NOISE(alias(*)) 
.INC "..\SCHEMATIC1.net" 



**** INCLUDING SCHEMATIC1.net ****
* source 3EJ4 LAB 1
V_VCC         N00166 0 5Vdc
V_VE         N00204 0 -5Vdc
R_R1         0 N00213  100k TC=0,0 
R_R2         N00292 N00166  100 TC=0,0 
Q_Q1         N00292 N00213 N00204 MY2N3904 

**** RESUMING dc_sweep.cir ****
.END

**** 09/18/25 11:41:39 *** PSpice 24.1.0 (4 September 2024) *** ID# 0 ********

 ** Profile: "SCHEMATIC1-dc_sweep"  [ C:\Users\dosanj5\OneDrive - McMaster University\School Files\2025 - 2026\ELEC 3EJ4\Lab 1\PSpice


 ****     BJT MODEL PARAMETERS


******************************************************************************




               MY2N3904        
               NPN             
       LEVEL    1            
          IS  126.532000E-12 
          EG    1.05         
          BF  206.302        
          NF    1.5          
         VAF    1.000000E+03 
         IKF     .027222     
         ISE    2.307710E-09 
          NE    3.31052      
          BR   20.6302       
          NR    2.89609      
         VAR    9.39809      
         IKR     .272221     
         ISC    2.307710E-09 
          NC    1.9876       
         ISS    0            
          RB    5.8376       
         RBM     .634251     
         IRB   50.3624       
          RE  100.000000E-06 
          RC    2.65711      
         CJE    4.642140E-12 
         VJE     .4          
         MJE     .256227     
         CJC    3.769610E-12 
         VJC     .4          
         MJC     .238109     
        XCJC     .8          
         CJS    0            
         VJS     .75         
         MJS     .5          
          FC     .512134     
          TF  419.578000E-12 
         XTF     .906167     
         VTF    8.75418      
         ITF     .010582     
          TR   68.202300E-09 
         XTB     .1          
         XTI    1            
          KF    0            
          AF    1            
          CN    2.42         
           D     .87         



          JOB CONCLUDED

**** 09/18/25 11:41:39 *** PSpice 24.1.0 (4 September 2024) *** ID# 0 ********

 ** Profile: "SCHEMATIC1-dc_sweep"  [ C:\Users\dosanj5\OneDrive - McMaster University\School Files\2025 - 2026\ELEC 3EJ4\Lab 1\PSpice


 ****     JOB STATISTICS SUMMARY


******************************************************************************



  Total job time (using Solver 1)   =         .03
